
.subckt ibis_sim_0_icn_ckt 1 2 
* Display all elements first 
TidlPart_11 1 0 2 0 z0=50 Td=1e-010 R=1e-5 
.ends ibis_sim_0_icn_ckt
