
*** Printing Custom Stimuli ***

.subckt ibis_sim_0.IO2.1_stim 5 4 3
v_5 5 3 1 (DC ..)

v_4 4 3  PWL (0 1 2.00001e-008 1.0 2.07833e-008 0 5.99998e-008 0 6.08831e-008 1.0 1e-007 1.0 1.00783e-007 0 1.2e-007 0 1.20883e-007 1.0 1.4e-007 1.0 1.40783e-007 0 1.6e-007 0 1.60883e-007 1.0 1.8e-007 1.0 1.80783e-007 0 2e-007 0 2.00883e-007 1.0 2.2e-007 1.0 2.20783e-007 0 3e-007 0 3.00883e-007 1.0 3.4e-007 1.0 3.40783e-007 0 3.6e-007 0 3.60883e-007 1.0 3.8e-007 1.0 3.80783e-007 0 4e-007 0 4.00883e-007 1.0 4.2e-007 1.0 4.20783e-007 0 4.6e-007 0 4.60884e-007 1.0 4.8e-007 1.0 4.80783e-007 0 5e-007 0 5.00883e-007 1.0 5.2e-007 1.0 5.20783e-007 0 6e-007 0 6.00883e-007 1.0 6.6e-007 1.0 6.60783e-007 0 6.8e-007 0 6.80884e-007 1.0 7.2e-007 1.0 7.20783e-007 0 7.4e-007 0 7.40883e-007 1.0 7.6e-007 1.0 7.60783e-007 0 8e-007 0 8.00883e-007 1.0 8.8e-007 1.0 8.80783e-007 0 9e-007 0 9.00883e-007 1.0 9.2e-007 1.0 9.20783e-007 0 9.6e-007 0 9.60883e-007 1.0 9.8e-007 1.0 9.80783e-007 0 1e-006 0 1.00088e-006 1.0 1.02e-006 1.0 1.02078e-006 0 1.04e-006 0 1.04088e-006 1.0 1.1e-006 1.0 1.10078e-006 0 1.14e-006 0 1.14088e-006 1.0 1.2e-006 1.0 ..)

.ends ibis_sim_0.IO2.1_stim

*** Printing Custom Stimuli ***

.subckt ibis_sim_0.IO3.1_stim 5 4 3
v_5 5 3 0
v_4 4 3 1
.ends ibis_sim_0.IO3.1_stim
