
*** Printing Custom Stimuli ***

.subckt PMOD2BNCSIMPLE_V1_04.J1.11_stim 5 4 3
v_5 5 3 1 (DC ..)

v_4 4 3  PWL (0 1 1.25e-08 1.0 1.33333e-08 0 1.375e-08 0 1.45833e-08 1.0 2.625e-08 1.0 2.70833e-08 0 2.75e-08 0 2.83333e-08 1.0 4e-08 1.0 4.08333e-08 0 4.125e-08 0 4.20833e-08 1.0 5.375e-08 1.0 5.45833e-08 0 5.5e-08 0 5.58333e-08 1.0 6.75e-08 1.0 6.83333e-08 0 6.875e-08 0 6.95833e-08 1.0 8.125e-08 1.0 8.20833e-08 0 8.25e-08 0 8.33333e-08 1.0 9.5e-08 1.0 9.58333e-08 0 9.625e-08 0 9.70833e-08 1.0 1.0875e-07 1.0 1.09583e-07 0 1.1e-07 0 1.10833e-07 1.0 1.225e-07 1.0 1.23333e-07 0 1.2375e-07 0 1.24583e-07 1.0 1.3625e-07 1.0 1.37083e-07 0 1.375e-07 0 1.38333e-07 1.0 1.5e-07 1.0 1.50833e-07 0 1.5125e-07 0 1.52083e-07 1.0 1.6375e-07 1.0 1.64583e-07 0 1.65e-07 0 1.65833e-07 1.0 1.775e-07 1.0 1.78333e-07 0 1.7875e-07 0 1.79583e-07 1.0 1.9125e-07 1.0 1.92083e-07 0 1.925e-07 0 1.93333e-07 1.0 2.05e-07 1.0 2.05833e-07 0 2.0625e-07 0 2.07083e-07 1.0 2.1875e-07 1.0 2.19583e-07 0 2.2e-07 0 2.20833e-07 1.0 2.325e-07 1.0 2.33333e-07 0 2.3375e-07 0 2.34583e-07 1.0 2.4625e-07 1.0 2.47083e-07 0 2.475e-07 0 2.48333e-07 1.0 2.6e-07 1.0 2.60833e-07 0 2.6125e-07 0.0 ..)

.ends PMOD2BNCSIMPLE_V1_04.J1.11_stim

*** Printing Custom Stimuli ***

.subckt PMOD2BNCSIMPLE_V1_04.U1.1_stim 5 4 3
v_5 5 3 0
v_4 4 3 1
.ends PMOD2BNCSIMPLE_V1_04.U1.1_stim
