
*** Printing Custom Stimuli ***

.subckt PMOD2BNCSIMPLE_V1_04.J1.11_stim 5 4 3
v_5 5 3 1 (DC ..)

v_4 4 3  PWL (0 0 2.5e-08 0 2.58333e-08 1.0 2.625e-08 1.0 2.70833e-08 0 5.125e-08 0 5.20833e-08 1.0 5.25e-08 1.0 5.33333e-08 0 7.75e-08 0 7.83333e-08 1.0 7.875e-08 1.0 7.95833e-08 0 1.0375e-07 0 1.04583e-07 1.0 1.05e-07 1.0 1.05833e-07 0 1.3e-07 0 1.30833e-07 1.0 1.3125e-07 1.0 1.32083e-07 0 1.5625e-07 0 1.57083e-07 1.0 1.575e-07 1.0 1.58333e-07 0 1.825e-07 0 1.83333e-07 1.0 1.8375e-07 1.0 1.84583e-07 0 2.0875e-07 0 2.09583e-07 1.0 2.1e-07 1.0 2.10833e-07 0 2.35e-07 0 2.35833e-07 1.0 2.3625e-07 1.0 2.37083e-07 0 2.6125e-07 0 2.62083e-07 1.0 2.625e-07 1.0 2.63333e-07 0 2.875e-07 0 2.88333e-07 1.0 2.8875e-07 1.0 2.89583e-07 0 3.1375e-07 0 3.14583e-07 1.0 3.15e-07 1.0 3.15833e-07 0 3.4e-07 0 3.40833e-07 1.0 3.4125e-07 1.0 3.42083e-07 0 3.6625e-07 0 3.67083e-07 1.0 3.675e-07 1.0 3.68333e-07 0 3.925e-07 0 3.93333e-07 1.0 3.9375e-07 1.0 3.94583e-07 0 4.1875e-07 0 4.19583e-07 1.0 4.2e-07 1.0 4.20833e-07 0 4.45e-07 0 4.45833e-07 1.0 4.4625e-07 1.0 ..)

.ends PMOD2BNCSIMPLE_V1_04.J1.11_stim

*** Printing Custom Stimuli ***

.subckt PMOD2BNCSIMPLE_V1_04.U1.1_stim 5 4 3
v_5 5 3 0
v_4 4 3 1
.ends PMOD2BNCSIMPLE_V1_04.U1.1_stim
