
.subckt PMOD2BNCSIMPLE_V1_02_icn_ckt 1 2 
* Display all elements first 
RPMOD2BNCSIMPLE_V1_02.@@R8.1.2 3 4 1.000000e+004
VPMOD2BNCSIMPLE_V1_02.@@R8.1_SOURCE 3 0 0.000000e+000
TPMOD2BNCSIMPLE_V1_02.T@@RATS@@J1.5@@R8.2 2 0 4 0 z0=50 Td=5.128e-011 R=1e-5 
TPMOD2BNCSIMPLE_V1_02.T@@RATS@@BNC8.5@@J1.5 2 0 1 0 z0=50 Td=9.8281e-010 R=1e-5 
.ends PMOD2BNCSIMPLE_V1_02_icn_ckt
