
*** Printing Custom Stimuli ***

.subckt PMOD2BNCSIMPLE_V1_02.IO2.1_stim 5 4 3
v_5 5 3 0
v_4 4 3 1
.ends PMOD2BNCSIMPLE_V1_02.IO2.1_stim

*** Printing Custom Stimuli ***

.subckt PMOD2BNCSIMPLE_V1_02.IO1.1_stim 5 4 3
v_5 5 3 1 (DC ..)

v_4 4 3  PWL (0 1 1.00012e-008 1.0 1.14002e-008 0 2.00009e-008 0 2.24107e-008 1.0 2.99992e-008 1.0 3.13982e-008 0 3.99997e-008 0 4.24096e-008 1.0 4.99982e-008 1.0 5.13972e-008 0 6.99977e-008 0 7.24076e-008 1.0 7.99985e-008 1.0 8.13975e-008 0 8.99986e-008 0 9.24084e-008 1.0 1.00001e-007 1.0 1.014e-007 0 1.19996e-007 0 1.22406e-007 1.0 1.29999e-007 1.0 1.31398e-007 0 1.5e-007 0 1.52409e-007 1.0 1.6e-007 1.0 1.61399e-007 0 1.70001e-007 0 1.72411e-007 1.0 1.80001e-007 1.0 1.814e-007 0 1.89998e-007 0 1.92408e-007 1.0 2.00001e-007 1.0 2.014e-007 0 2.09999e-007 0 2.12409e-007 1.0 2.2e-007 1.0 2.21399e-007 0 2.29999e-007 0 2.32409e-007 1.0 2.40002e-007 1.0 2.41401e-007 0 2.49999e-007 0 2.52409e-007 1.0 2.60001e-007 1.0 2.614e-007 0 2.70002e-007 0 2.72412e-007 1.0 2.80001e-007 1.0 2.814e-007 0 3.00001e-007 0 3.02411e-007 1.0 3.10002e-007 1.0 3.11401e-007 0 3.2e-007 0 3.2241e-007 1.0 3.30001e-007 1.0 3.314e-007 0 3.4e-007 0 3.42409e-007 1.0 3.5e-007 1.0 3.51399e-007 0 3.59998e-007 0 3.62408e-007 1.0 3.70001e-007 1.0 3.714e-007 0 3.79999e-007 0 3.82408e-007 1.0 3.9e-007 1.0 3.91399e-007 0 4.00001e-007 0 4.02411e-007 1.0 4.10002e-007 1.0 4.11401e-007 0 4.2e-007 0 4.2241e-007 1.0 4.30001e-007 1.0 4.314e-007 0 4.4e-007 0 4.4241e-007 1.0 4.5e-007 1.0 4.51399e-007 0 4.60002e-007 0 4.62411e-007 1.0 4.69998e-007 1.0 4.71397e-007 0 4.8e-007 0 4.8241e-007 1.0 4.89999e-007 1.0 4.91398e-007 0 5.00001e-007 0 5.02411e-007 1.0 5.19998e-007 1.0 5.21397e-007 0 5.3e-007 0 5.32409e-007 1.0 5.39997e-007 1.0 5.41396e-007 0 5.5e-007 0 5.52409e-007 1.0 5.59999e-007 1.0 5.61398e-007 0 5.70001e-007 0 5.72411e-007 1.0 5.80001e-007 1.0 5.814e-007 0 6e-007 0 6.0241e-007 1.0 6.09999e-007 1.0 6.11398e-007 0 6.19998e-007 0 6.22408e-007 1.0 6.29999e-007 1.0 6.31398e-007 0 6.50001e-007 0 6.52411e-007 1.0 6.69999e-007 1.0 6.71398e-007 0 6.9e-007 0 6.9241e-007 1.0 7.1e-007 1.0 7.11399e-007 0 7.19997e-007 0 7.22407e-007 1.0 7.30003e-007 1.0 7.31402e-007 0 7.4e-007 0 7.4241e-007 1.0 7.50001e-007 1.0 7.514e-007 0 7.60001e-007 0 7.62411e-007 1.0 7.8e-007 1.0 7.81399e-007 0 8.1e-007 0 8.1241e-007 1.0 8.19997e-007 1.0 8.21396e-007 0 8.39998e-007 0 8.42407e-007 1.0 8.50002e-007 1.0 8.51401e-007 0 8.8e-007 0 8.8241e-007 1.0 8.90001e-007 1.0 8.914e-007 0 8.99999e-007 0 9.02409e-007 1.0 9.10002e-007 1.0 9.11401e-007 0 9.19998e-007 0 9.22408e-007 1.0 9.30001e-007 1.0 9.314e-007 0 9.50001e-007 0 9.52411e-007 1.0 9.59998e-007 1.0 9.61397e-007 0 9.7e-007 0 9.7241e-007 1.0 9.79996e-007 1.0 9.81395e-007 0 9.90001e-007 0 9.9241e-007 1.0 1e-006 1.0 1.0014e-006 0 1.02e-006 0 1.02241e-006 1.0 1.03e-006 1.0 1.0314e-006 0 1.05e-006 0 1.05241e-006 1.0 1.06e-006 1.0 1.0614e-006 0 1.08e-006 0 1.08241e-006 1.0 1.09e-006 1.0 1.0914e-006 0 1.1e-006 0 1.10241e-006 1.0 1.11e-006 1.0 1.1114e-006 0 1.13e-006 0 1.13241e-006 1.0 1.14e-006 1.0 1.1414e-006 0 1.16e-006 0 1.16241e-006 1.0 1.17e-006 1.0 1.1714e-006 0 1.18e-006 0 1.18241e-006 1.0 1.19e-006 1.0 1.1914e-006 0 1.21e-006 0 1.21241e-006 1.0 1.22e-006 1.0 1.2214e-006 0 1.23e-006 0 1.23241e-006 1.0 1.25e-006 1.0 1.2514e-006 0 1.26e-006 0 1.26241e-006 1.0 1.27e-006 1.0 1.2714e-006 0 1.28e-006 0 1.28241e-006 1.0 1.29e-006 1.0 1.2914e-006 0 1.31e-006 0 1.31241e-006 1.0 1.32e-006 1.0 1.3214e-006 0 1.33e-006 0 1.33241e-006 1.0 1.34e-006 1.0 1.3414e-006 0 1.36e-006 0 1.36241e-006 1.0 1.37e-006 1.0 1.3714e-006 0 1.39e-006 0 1.39241e-006 1.0 1.4e-006 1.0 1.4014e-006 0 1.41e-006 0 1.41241e-006 1.0 1.42e-006 1.0 1.4214e-006 0 1.43e-006 0 1.43241e-006 1.0 1.44e-006 1.0 1.4414e-006 0 1.45e-006 0 1.45241e-006 1.0 1.46e-006 1.0 1.4614e-006 0 1.47e-006 0 1.47241e-006 1.0 1.48e-006 1.0 1.4814e-006 0 1.49e-006 0 1.49241e-006 1.0 1.5e-006 1.0 1.5014e-006 0 1.51e-006 0 1.51241e-006 1.0 1.52e-006 1.0 1.5214e-006 0 1.54e-006 0 1.54241e-006 1.0 1.55e-006 1.0 1.5514e-006 0 1.56e-006 0 1.56241e-006 1.0 1.57e-006 1.0 1.5714e-006 0 1.58e-006 0 1.58241e-006 1.0 1.59e-006 1.0 1.5914e-006 0 1.6e-006 0 1.60241e-006 1.0 1.61e-006 1.0 1.6114e-006 0 1.62e-006 0 1.62241e-006 1.0 1.63e-006 1.0 1.6314e-006 0 1.64e-006 0 1.64241e-006 1.0 1.65e-006 1.0 1.6514e-006 0 1.66e-006 0 1.66241e-006 1.0 1.67e-006 1.0 1.6714e-006 0 1.68e-006 0 1.68241e-006 1.0 1.69e-006 1.0 1.6914e-006 0 1.7e-006 0 1.70241e-006 1.0 1.71e-006 1.0 1.7114e-006 0 1.72e-006 0 1.72241e-006 1.0 1.73e-006 1.0 1.7314e-006 0 1.74e-006 0 1.74241e-006 1.0 1.76e-006 1.0 1.7614e-006 0 1.77e-006 0 1.77241e-006 1.0 1.78e-006 1.0 1.7814e-006 0 1.79e-006 0 1.79241e-006 1.0 1.8e-006 1.0 1.8014e-006 0 1.81e-006 0 1.81241e-006 1.0 1.82e-006 1.0 1.8214e-006 0 1.84e-006 0 1.84241e-006 1.0 1.85e-006 1.0 1.8514e-006 0 1.86e-006 0 1.86241e-006 1.0 1.87e-006 1.0 1.8714e-006 0 1.89e-006 0 1.89241e-006 1.0 1.91e-006 1.0 1.9114e-006 0 1.93e-006 0 1.93241e-006 1.0 1.95e-006 1.0 1.9514e-006 0 1.96e-006 0 1.96241e-006 1.0 1.97e-006 1.0 1.9714e-006 0 1.98e-006 0 1.98241e-006 1.0 1.99e-006 1.0 1.9914e-006 0 2e-006 0 2.00241e-006 1.0 2.02e-006 1.0 2.0214e-006 0 2.05e-006 0 2.05241e-006 1.0 2.06e-006 1.0 2.0614e-006 0 2.08e-006 0 2.08241e-006 1.0 2.09e-006 1.0 2.0914e-006 0 2.12e-006 0 2.12241e-006 1.0 2.13e-006 1.0 2.1314e-006 0 2.14e-006 0 2.14241e-006 1.0 2.15e-006 1.0 2.1514e-006 0 2.16e-006 0 2.16241e-006 1.0 2.17e-006 1.0 2.1714e-006 0 2.19e-006 0 2.19241e-006 1.0 2.2e-006 1.0 2.2014e-006 0 2.21e-006 0 2.21241e-006 1.0 2.22e-006 1.0 2.2214e-006 0 2.23e-006 0 2.23241e-006 1.0 2.24e-006 1.0 2.2414e-006 0 2.26e-006 0 2.26241e-006 1.0 2.27e-006 1.0 2.2714e-006 0 2.29e-006 0 2.29241e-006 1.0 2.3e-006 1.0 2.3014e-006 0 2.32e-006 0 2.32241e-006 1.0 2.33e-006 1.0 2.3314e-006 0 2.34e-006 0 2.34241e-006 1.0 2.35e-006 1.0 2.3514e-006 0 2.37e-006 0 2.37241e-006 1.0 2.38e-006 1.0 2.3814e-006 0 2.4e-006 0 2.40241e-006 1.0 2.41e-006 1.0 2.4114e-006 0 2.42e-006 0 2.42241e-006 1.0 2.44e-006 1.0 2.4414e-006 0 2.45e-006 0 2.45241e-006 1.0 2.46e-006 1.0 2.4614e-006 0 2.47e-006 0 2.47241e-006 1.0 2.48e-006 1.0 2.4814e-006 0 2.5e-006 0 2.50241e-006 1.0 2.51e-006 1.0 2.5114e-006 0 2.52e-006 0 2.52241e-006 1.0 2.53e-006 1.0 2.5314e-006 0 2.55e-006 0 2.55241e-006 1.0 2.56e-006 1.0 2.5614e-006 0 2.58e-006 0 2.58241e-006 1.0 2.59e-006 1.0 2.5914e-006 0 2.6e-006 0 2.60241e-006 1.0 2.61e-006 1.0 2.6114e-006 0 2.62e-006 0 2.62241e-006 1.0 2.63e-006 1.0 2.6314e-006 0 2.63999e-006 0 2.6424e-006 1.0 2.65e-006 1.0 2.6514e-006 0 2.66e-006 0 2.66241e-006 1.0 2.67e-006 1.0 2.6714e-006 0 2.68e-006 0 2.68241e-006 1.0 2.69e-006 1.0 2.6914e-006 0 2.7e-006 0 2.70241e-006 1.0 2.71e-006 1.0 2.7114e-006 0 2.73e-006 0 2.73241e-006 1.0 2.74e-006 1.0 2.7414e-006 0 2.75e-006 0 2.75241e-006 1.0 2.76e-006 1.0 2.7614e-006 0 2.77e-006 0 2.77241e-006 1.0 2.78e-006 1.0 2.7814e-006 0 2.79e-006 0 2.79241e-006 1.0 2.8e-006 1.0 2.8014e-006 0 2.81e-006 0 2.81241e-006 1.0 2.82e-006 1.0 2.8214e-006 0 2.83e-006 0 2.83241e-006 1.0 2.84e-006 1.0 2.8414e-006 0 2.85e-006 0 2.85241e-006 1.0 2.86e-006 1.0 2.8614e-006 0 2.87e-006 0 2.87241e-006 1.0 2.88e-006 1.0 2.8814e-006 0 2.89e-006 0 2.89241e-006 1.0 2.9e-006 1.0 2.9014e-006 0 2.91e-006 0 2.91241e-006 1.0 2.92e-006 1.0 2.9214e-006 0 2.93e-006 0 2.93241e-006 1.0 2.95e-006 1.0 2.9514e-006 0 2.96e-006 0 2.96241e-006 1.0 2.97e-006 1.0 2.9714e-006 0 2.98e-006 0 2.98241e-006 1.0 2.99e-006 1.0 2.9914e-006 0 3e-006 0 3.00241e-006 1.0 3.01e-006 1.0 3.0114e-006 0 3.03e-006 0 3.03241e-006 1.0 3.04e-006 1.0 3.0414e-006 0 3.05e-006 0 3.05241e-006 1.0 3.06e-006 1.0 3.0614e-006 0 3.08e-006 0 3.08241e-006 1.0 3.1e-006 1.0 3.1014e-006 0 3.12e-006 0 3.12241e-006 1.0 3.14e-006 1.0 3.1414e-006 0 3.15e-006 0 3.15241e-006 1.0 3.16e-006 1.0 3.1614e-006 0 3.17e-006 0 3.17241e-006 1.0 3.18e-006 1.0 3.1814e-006 0 3.19e-006 0 3.19241e-006 1.0 3.21e-006 1.0 3.2114e-006 0 3.24e-006 0 3.24241e-006 1.0 3.25e-006 1.0 3.2514e-006 0 3.27e-006 0 3.27241e-006 1.0 3.28e-006 1.0 3.2814e-006 0 3.31e-006 0 3.31241e-006 1.0 3.32e-006 1.0 3.3214e-006 0 3.33e-006 0 3.33241e-006 1.0 3.34e-006 1.0 3.3414e-006 0 3.35e-006 0 3.35241e-006 1.0 3.36e-006 1.0 3.3614e-006 0 3.38e-006 0 3.38241e-006 1.0 3.39e-006 1.0 3.3914e-006 0 3.4e-006 0 3.40241e-006 1.0 3.41e-006 1.0 3.4114e-006 0 3.42e-006 0 3.42241e-006 1.0 3.43e-006 1.0 3.4314e-006 0 3.45e-006 0 3.45241e-006 1.0 3.46e-006 1.0 3.4614e-006 0 3.48e-006 0 3.48241e-006 1.0 3.49e-006 1.0 3.4914e-006 0 3.51e-006 0 3.51241e-006 1.0 3.52e-006 1.0 3.5214e-006 0 3.53e-006 0 3.53241e-006 1.0 3.54e-006 1.0 3.5414e-006 0 3.56e-006 0 3.56241e-006 1.0 3.57e-006 1.0 3.5714e-006 0 3.59e-006 0 3.59241e-006 1.0 3.6e-006 1.0 3.6014e-006 0 3.61e-006 0 3.61241e-006 1.0 3.62e-006 1.0 3.6214e-006 0 3.63e-006 0 3.63241e-006 1.0 3.64e-006 1.0 3.6414e-006 0 3.66e-006 0 3.66241e-006 1.0 3.67e-006 1.0 3.6714e-006 0 3.68e-006 0 3.68241e-006 1.0 3.69e-006 1.0 3.6914e-006 0 3.71e-006 0 3.71241e-006 1.0 3.72e-006 1.0 3.7214e-006 0 3.74e-006 0 3.74241e-006 1.0 3.75e-006 1.0 3.7514e-006 0 3.76e-006 0 3.76241e-006 1.0 3.77e-006 1.0 3.7714e-006 0 3.78e-006 0 3.78241e-006 1.0 3.79e-006 1.0 3.7914e-006 0 3.8e-006 0 3.80241e-006 1.0 3.81e-006 1.0 3.8114e-006 0 3.82e-006 0 3.82241e-006 1.0 3.83e-006 1.0 3.8314e-006 0 3.84e-006 0 3.84241e-006 1.0 3.85e-006 1.0 3.8514e-006 0 3.86e-006 0 3.86241e-006 1.0 3.87e-006 1.0 3.8714e-006 0 3.89e-006 0 3.89241e-006 1.0 3.9e-006 1.0 3.9014e-006 0 3.91e-006 0 3.91241e-006 1.0 3.92e-006 1.0 3.9214e-006 0 3.93e-006 0 3.93241e-006 1.0 3.94e-006 1.0 3.9414e-006 0 3.95e-006 0 3.95241e-006 1.0 3.96e-006 1.0 3.9614e-006 0 3.97e-006 0 3.97241e-006 1.0 3.98e-006 1.0 3.9814e-006 0 3.99e-006 0 3.99241e-006 1.0 4e-006 1.0 4.0014e-006 0 4.01e-006 0 4.01241e-006 1.0 4.02e-006 1.0 4.0214e-006 0 4.03e-006 0 4.03241e-006 1.0 4.04e-006 1.0 4.0414e-006 0 4.05e-006 0 4.05241e-006 1.0 4.06e-006 1.0 4.0614e-006 0 4.07e-006 0 4.07241e-006 1.0 4.08e-006 1.0 4.0814e-006 0 4.09e-006 0 4.09241e-006 1.0 4.11e-006 1.0 4.1114e-006 0 4.12e-006 0 4.12241e-006 1.0 4.13e-006 1.0 4.1314e-006 0 4.14e-006 0 4.14241e-006 1.0 4.15e-006 1.0 4.1514e-006 0 4.16e-006 0 4.16241e-006 1.0 4.17e-006 1.0 4.1714e-006 0 4.19e-006 0 4.19241e-006 1.0 4.2e-006 1.0 4.2014e-006 0 4.21e-006 0 4.21241e-006 1.0 4.22e-006 1.0 4.2214e-006 0 4.24e-006 0 4.24241e-006 1.0 4.26e-006 1.0 4.2614e-006 0 4.28e-006 0 4.28241e-006 1.0 4.3e-006 1.0 4.3014e-006 0 4.31e-006 0 4.31241e-006 1.0 4.32e-006 1.0 4.3214e-006 0 4.33e-006 0 4.33241e-006 1.0 4.34e-006 1.0 4.3414e-006 0 4.35e-006 0 4.35241e-006 1.0 4.37e-006 1.0 4.3714e-006 0 4.4e-006 0 4.40241e-006 1.0 4.41e-006 1.0 4.4114e-006 0 4.43e-006 0 4.43241e-006 1.0 4.44e-006 1.0 4.4414e-006 0 4.47e-006 0 4.47241e-006 1.0 4.48e-006 1.0 4.4814e-006 0 4.49e-006 0 4.49241e-006 1.0 4.5e-006 1.0 4.5014e-006 0 4.51e-006 0 4.51241e-006 1.0 4.52e-006 1.0 4.5214e-006 0 4.54e-006 0 4.54241e-006 1.0 4.55e-006 1.0 4.5514e-006 0 4.56e-006 0 4.56241e-006 1.0 4.57e-006 1.0 4.5714e-006 0 4.58e-006 0 4.58241e-006 1.0 4.59e-006 1.0 4.5914e-006 0 4.61e-006 0 4.61241e-006 1.0 4.62e-006 1.0 4.6214e-006 0 4.64e-006 0 4.64241e-006 1.0 4.65e-006 1.0 4.6514e-006 0 4.67e-006 0 4.67241e-006 1.0 4.68e-006 1.0 4.6814e-006 0 4.69e-006 0 4.69241e-006 1.0 4.7e-006 1.0 4.7014e-006 0 4.72e-006 0 4.72241e-006 1.0 4.73e-006 1.0 4.7314e-006 0 4.75e-006 0 4.75241e-006 1.0 4.76e-006 1.0 4.7614e-006 0 4.77e-006 0 4.77241e-006 1.0 4.78e-006 1.0 4.7814e-006 0 4.79e-006 0 4.79241e-006 1.0 4.8e-006 1.0 4.8014e-006 0 4.81e-006 0 4.81241e-006 1.0 4.82e-006 1.0 4.8214e-006 0 4.83e-006 0 4.83241e-006 1.0 4.84e-006 1.0 4.8414e-006 0 4.86e-006 0 4.86241e-006 1.0 4.87e-006 1.0 4.8714e-006 0 4.88e-006 0 4.88241e-006 1.0 4.89e-006 1.0 4.8914e-006 0 4.91e-006 0 4.91241e-006 1.0 4.92e-006 1.0 4.9214e-006 0 4.94e-006 0 4.94241e-006 1.0 4.95e-006 1.0 4.9514e-006 0 4.96e-006 0 4.96241e-006 1.0 4.97e-006 1.0 4.9714e-006 0 4.98e-006 0 4.98241e-006 1.0 4.99e-006 1.0 4.9914e-006 0 5e-006 0 5.00241e-006 1.0 5.01e-006 1.0 5.0114e-006 0 5.02e-006 0 5.02241e-006 1.0 5.03e-006 1.0 5.0314e-006 0 5.04e-006 0 5.04241e-006 1.0 5.05e-006 1.0 5.0514e-006 0 5.06e-006 0 5.06241e-006 1.0 5.07e-006 1.0 5.0714e-006 0 5.09e-006 0 5.09241e-006 1.0 5.1e-006 1.0 5.1014e-006 0 5.11e-006 0 5.11241e-006 1.0 5.12e-006 1.0 5.1214e-006 0 5.13e-006 0 5.13241e-006 1.0 5.14e-006 1.0 5.1414e-006 0 5.15e-006 0 5.15241e-006 1.0 5.16e-006 1.0 5.1614e-006 0 5.17e-006 0 5.17241e-006 1.0 5.18e-006 1.0 5.1814e-006 0 5.19e-006 0 5.19241e-006 1.0 5.2e-006 1.0 5.2014e-006 0 5.21e-006 0 5.21241e-006 1.0 5.22e-006 1.0 5.2214e-006 0 5.23e-006 0 5.23241e-006 1.0 5.24e-006 1.0 5.2414e-006 0 5.25e-006 0 5.25241e-006 1.0 5.26e-006 1.0 5.2614e-006 0 5.27e-006 0 5.27241e-006 1.0 5.28e-006 1.0 5.2814e-006 0 5.29e-006 0 5.29241e-006 1.0 5.31e-006 1.0 5.3114e-006 0 5.32e-006 0 5.32241e-006 1.0 5.33e-006 1.0 5.3314e-006 0 5.34e-006 0 5.34241e-006 1.0 5.35e-006 1.0 5.3514e-006 0 5.36e-006 0 5.36241e-006 1.0 5.37e-006 1.0 5.3714e-006 0 5.39e-006 0 5.39241e-006 1.0 5.4e-006 1.0 5.4014e-006 0 5.41e-006 0 5.41241e-006 1.0 5.42e-006 1.0 5.4214e-006 0 5.44e-006 0 5.44241e-006 1.0 5.46e-006 1.0 5.4614e-006 0 5.48e-006 0 5.48241e-006 1.0 5.5e-006 1.0 5.5014e-006 0 5.51e-006 0 5.51241e-006 1.0 5.52e-006 1.0 5.5214e-006 0 5.53e-006 0 5.53241e-006 1.0 5.54e-006 1.0 5.5414e-006 0 5.55e-006 0 5.55241e-006 1.0 5.57e-006 1.0 5.5714e-006 0 5.6e-006 0 5.60241e-006 1.0 5.61e-006 1.0 5.6114e-006 0 5.63e-006 0 5.63241e-006 1.0 5.64e-006 1.0 5.6414e-006 0 5.67e-006 0 5.67241e-006 1.0 5.68e-006 1.0 5.6814e-006 0 5.69e-006 0 5.69241e-006 1.0 5.7e-006 1.0 5.7014e-006 0 5.71e-006 0 5.71241e-006 1.0 5.72e-006 1.0 5.7214e-006 0 5.74e-006 0 5.74241e-006 1.0 5.75e-006 1.0 5.7514e-006 0 5.76e-006 0 5.76241e-006 1.0 5.77e-006 1.0 5.7714e-006 0 5.78e-006 0 5.78241e-006 1.0 5.79e-006 1.0 5.7914e-006 0 5.81e-006 0 5.81241e-006 1.0 5.82e-006 1.0 5.8214e-006 0 5.84e-006 0 5.84241e-006 1.0 5.85e-006 1.0 5.8514e-006 0 5.87e-006 0 5.87241e-006 1.0 5.88e-006 1.0 5.8814e-006 0 5.89e-006 0 5.89241e-006 1.0 5.9e-006 1.0 5.9014e-006 0 5.92e-006 0 5.92241e-006 1.0 5.93e-006 1.0 5.9314e-006 0 5.95e-006 0 5.95241e-006 1.0 5.96e-006 1.0 5.9614e-006 0 5.97e-006 0 5.97241e-006 1.0 5.98e-006 1.0 5.9814e-006 0 6e-006 0 6.00241e-006 1.0 6.01e-006 1.0 6.0114e-006 0 6.02e-006 0 6.02241e-006 1.0 6.03e-006 1.0 6.0314e-006 0 6.04e-006 0 6.04241e-006 1.0 6.05e-006 1.0 6.0514e-006 0 6.07e-006 0 6.07241e-006 1.0 6.08e-006 1.0 6.0814e-006 0 6.09e-006 0 6.09241e-006 1.0 6.1e-006 1.0 6.1014e-006 0 6.11e-006 0 6.11241e-006 1.0 6.13e-006 1.0 6.1314e-006 0 6.14e-006 0 6.14241e-006 1.0 6.15e-006 1.0 6.1514e-006 0 6.16e-006 0 6.16241e-006 1.0 6.17e-006 1.0 6.1714e-006 0 6.19e-006 0 6.19241e-006 1.0 6.2e-006 1.0 6.2014e-006 0 6.21e-006 0 6.21241e-006 1.0 6.22e-006 1.0 6.2214e-006 0 6.24e-006 0 6.24241e-006 1.0 6.25e-006 1.0 6.2514e-006 0 6.27e-006 0 6.27241e-006 1.0 6.28e-006 1.0 6.2814e-006 0 6.29e-006 0 6.29241e-006 1.0 6.3e-006 1.0 6.3014e-006 0 6.31e-006 0 6.31241e-006 1.0 6.32e-006 1.0 6.3214e-006 0 6.33e-006 0 6.33241e-006 1.0 6.34e-006 1.0 6.3414e-006 0 6.35e-006 0 6.35241e-006 1.0 6.36e-006 1.0 6.3614e-006 0 6.37e-006 0 6.37241e-006 1.0 6.38e-006 1.0 6.3814e-006 0 6.39e-006 0 6.39241e-006 1.0 6.4e-006 1.0 6.4014e-006 0 6.42e-006 0 6.42241e-006 1.0 6.43e-006 1.0 6.4314e-006 0 6.44e-006 0 6.44241e-006 1.0 6.45e-006 1.0 6.4514e-006 0 6.46e-006 0 6.46241e-006 1.0 6.47e-006 1.0 6.4714e-006 0 6.48e-006 0 6.48241e-006 1.0 6.49e-006 1.0 6.4914e-006 0 6.5e-006 0 6.50241e-006 1.0 6.51e-006 1.0 6.5114e-006 0 6.52e-006 0 6.52241e-006 1.0 6.53e-006 1.0 6.5314e-006 0 6.54e-006 0 6.54241e-006 1.0 6.55e-006 1.0 6.5514e-006 0 6.56e-006 0 6.56241e-006 1.0 6.57e-006 1.0 6.5714e-006 0 6.58e-006 0 6.58241e-006 1.0 6.59e-006 1.0 6.5914e-006 0 6.6e-006 0 6.60241e-006 1.0 6.61e-006 1.0 6.6114e-006 0 6.62e-006 0 6.62241e-006 1.0 6.64e-006 1.0 6.6414e-006 0 6.65e-006 0 6.65241e-006 1.0 6.66e-006 1.0 6.6614e-006 0 6.67e-006 0 6.67241e-006 1.0 6.68e-006 1.0 6.6814e-006 0 6.69e-006 0 6.69241e-006 1.0 6.7e-006 1.0 6.7014e-006 0 6.72e-006 0 6.72241e-006 1.0 6.73e-006 1.0 6.7314e-006 0 6.74e-006 0 6.74241e-006 1.0 6.75e-006 1.0 6.7514e-006 0 6.77e-006 0 6.77241e-006 1.0 6.79e-006 1.0 6.7914e-006 0 6.81e-006 0 6.81241e-006 1.0 6.83e-006 1.0 6.8314e-006 0 6.84e-006 0 6.84241e-006 1.0 6.85e-006 1.0 6.8514e-006 0 6.86e-006 0 6.86241e-006 1.0 6.87e-006 1.0 6.8714e-006 0 6.88e-006 0 6.88241e-006 1.0 6.9e-006 1.0 6.9014e-006 0 6.93e-006 0 6.93241e-006 1.0 6.94e-006 1.0 6.9414e-006 0 6.96e-006 0 6.96241e-006 1.0 6.97e-006 1.0 6.9714e-006 0 7e-006 0 7.00241e-006 1.0 7.01e-006 1.0 7.0114e-006 0 7.02e-006 0 7.02241e-006 1.0 7.03e-006 1.0 7.0314e-006 0 7.04e-006 0 7.04241e-006 1.0 7.05e-006 1.0 7.0514e-006 0 7.07e-006 0 7.07241e-006 1.0 7.08e-006 1.0 7.0814e-006 0 7.09e-006 0 7.09241e-006 1.0 7.1e-006 1.0 7.1014e-006 0 7.11e-006 0 7.11241e-006 1.0 7.12e-006 1.0 7.1214e-006 0 7.14e-006 0 7.14241e-006 1.0 7.15e-006 1.0 7.1514e-006 0 7.17e-006 0 7.17241e-006 1.0 7.18e-006 1.0 7.1814e-006 0 7.2e-006 0 7.20241e-006 1.0 7.21e-006 1.0 7.2114e-006 0 7.22e-006 0 7.22241e-006 1.0 7.23e-006 1.0 7.2314e-006 0 7.25e-006 0 7.25241e-006 1.0 7.26e-006 1.0 7.2614e-006 0 7.27e-006 0 7.27241e-006 1.0 7.28e-006 1.0 7.2814e-006 0 7.29e-006 0 7.29241e-006 1.0 7.3e-006 1.0 7.3014e-006 0 7.31e-006 0 7.31241e-006 1.0 7.32e-006 1.0 7.3214e-006 0 7.34e-006 0 7.34241e-006 1.0 7.35e-006 1.0 7.3514e-006 0 7.36e-006 0 7.36241e-006 1.0 7.37e-006 1.0 7.3714e-006 0 7.39e-006 0 7.39241e-006 1.0 7.4e-006 1.0 7.4014e-006 0 7.42e-006 0 7.42241e-006 1.0 7.43e-006 1.0 7.4314e-006 0 7.44e-006 0 7.44241e-006 1.0 7.45e-006 1.0 7.4514e-006 0 7.46e-006 0 7.46241e-006 1.0 7.47e-006 1.0 7.4714e-006 0 7.48e-006 0 7.48241e-006 1.0 7.49e-006 1.0 7.4914e-006 0 7.5e-006 0 7.50241e-006 1.0 7.51e-006 1.0 7.5114e-006 0 7.52e-006 0 7.52241e-006 1.0 7.53e-006 1.0 7.5314e-006 0 7.54e-006 0 7.54241e-006 1.0 7.55e-006 1.0 7.5514e-006 0 7.57e-006 0 7.57241e-006 1.0 7.58e-006 1.0 7.5814e-006 0 7.59e-006 0 7.59241e-006 1.0 7.6e-006 1.0 7.6014e-006 0 7.61e-006 0 7.61241e-006 1.0 7.62e-006 1.0 7.6214e-006 0 7.63e-006 0 7.63241e-006 1.0 7.64e-006 1.0 7.6414e-006 0 7.65e-006 0 7.65241e-006 1.0 7.66e-006 1.0 7.6614e-006 0 7.67e-006 0 7.67241e-006 1.0 7.68e-006 1.0 7.6814e-006 0 7.69e-006 0 7.69241e-006 1.0 7.7e-006 1.0 7.7014e-006 0 7.71e-006 0 7.71241e-006 1.0 7.72e-006 1.0 7.7214e-006 0 7.73e-006 0 7.73241e-006 1.0 7.74e-006 1.0 7.7414e-006 0 7.75e-006 0 7.75241e-006 1.0 7.76e-006 1.0 7.7614e-006 0 7.77e-006 0 7.77241e-006 1.0 7.78e-006 1.0 7.7814e-006 0 7.8e-006 0 7.80241e-006 1.0 7.81e-006 1.0 7.8114e-006 0 7.82e-006 0 7.82241e-006 1.0 7.83e-006 1.0 7.8314e-006 0 7.84e-006 0 7.84241e-006 1.0 7.85e-006 1.0 7.8514e-006 0 7.87e-006 0 7.87241e-006 1.0 7.88e-006 1.0 7.8814e-006 0 7.89e-006 0 7.89241e-006 1.0 7.9e-006 1.0 7.9014e-006 0 7.92e-006 0 7.92241e-006 1.0 7.94e-006 1.0 7.9414e-006 0 7.95e-006 0 7.95241e-006 1.0 7.96e-006 1.0 7.9614e-006 0 7.98e-006 0 7.98241e-006 1.0 7.99e-006 1.0 7.9914e-006 0 8e-006 0 8.00241e-006 1.0 8.01e-006 1.0 8.0114e-006 0 8.02e-006 0 8.02241e-006 1.0 8.03e-006 1.0 8.0314e-006 0 8.05e-006 0 8.05241e-006 1.0 8.06e-006 1.0 8.0614e-006 0 8.08e-006 0 8.08241e-006 1.0 8.09e-006 1.0 8.0914e-006 0 8.1e-006 0 8.10241e-006 1.0 8.11e-006 1.0 8.1114e-006 0 8.12e-006 0 8.12241e-006 1.0 8.13e-006 1.0 8.1314e-006 0 8.15e-006 0 8.15241e-006 1.0 8.16e-006 1.0 8.1614e-006 0 8.17e-006 0 8.17241e-006 1.0 8.18e-006 1.0 8.1814e-006 0 8.2e-006 0 8.20241e-006 1.0 8.21e-006 1.0 ..)

.ends PMOD2BNCSIMPLE_V1_02.IO1.1_stim
