
*** Printing Custom Stimuli ***

.subckt PMOD2BNCSIMPLE_V1_02.J1.5_stim 5 4 3
v_5 5 3 1
v_4 4 3  PWL (0 1 1e-008 1.0 1.08333e-008 0 3e-008 0 3.08333e-008 1.0 4e-008 1.0 4.08333e-008 0 5e-008 0 5.08333e-008 1.0 7e-008 1.0 7.08333e-008 0 8e-008 0 8.08333e-008 1.0 9e-008 1.0 9.08333e-008 0 1e-007 0 1.00833e-007 1.0 1.1e-007 1.0 1.10833e-007 0 1.2e-007 0 1.20833e-007 1.0 1.3e-007 1.0 1.30833e-007 0 1.4e-007 0 1.40833e-007 1.0 1.5e-007 1.0 1.50833e-007 0 1.8e-007 0 1.80833e-007 1.0 2.1e-007 1.0 2.10833e-007 0 2.2e-007 0 2.20833e-007 1.0 2.4e-007 1.0 2.40833e-007 0 2.5e-007 0 2.50833e-007 1.0 2.7e-007 1.0 2.70833e-007 0 2.8e-007 0 2.80833e-007 1.0 2.9e-007 1.0 2.90833e-007 0 3e-007 0 3.00833e-007 1.0 3.2e-007 1.0 ..)

.ends PMOD2BNCSIMPLE_V1_02.J1.5_stim

.subckt PMOD2BNCSIMPLE_V1_02.BNC8.5_stim 5 4 3
v_enable_off 5 3 0
v_input_inactive 4 3 1
.ends PMOD2BNCSIMPLE_V1_02.BNC8.5_stim
