Version 4
SHEET 1 1020 680
WIRE 624 -112 288 -112
WIRE -320 -96 -432 -96
WIRE -112 -96 -224 -96
WIRE 48 -96 -112 -96
WIRE 128 -96 48 -96
WIRE -432 -80 -432 -96
WIRE 496 -80 288 -80
WIRE -320 -64 -368 -64
WIRE -160 -64 -224 -64
WIRE 96 -64 16 -64
WIRE 128 -64 96 -64
WIRE 448 -48 288 -48
WIRE 496 -48 496 -80
WIRE 624 -16 624 -112
WIRE 96 32 96 -64
WIRE 448 48 448 -48
WIRE -432 64 -432 0
WIRE 624 96 624 64
WIRE -112 112 -112 -96
WIRE 96 144 96 112
WIRE 16 192 16 -64
WIRE 48 192 16 192
WIRE 16 272 16 192
WIRE 48 272 16 272
WIRE 240 272 144 272
WIRE 304 272 240 272
WIRE 48 304 -16 304
WIRE 208 304 144 304
WIRE 240 368 240 272
WIRE -432 544 -432 144
WIRE -368 544 -368 -64
WIRE -368 544 -432 544
WIRE -272 544 -368 544
WIRE -160 544 -160 -64
WIRE -160 544 -272 544
WIRE -112 544 -112 192
WIRE -112 544 -160 544
WIRE -16 544 -16 304
WIRE -16 544 -112 544
WIRE 208 544 208 304
WIRE 240 544 240 448
WIRE 240 544 208 544
WIRE 272 544 240 544
FLAG 624 96 0
FLAG 496 -48 0
FLAG 304 272 RECIEVE
IOPIN 304 272 Out
FLAG 272 544 0
FLAG 96 144 0
FLAG -272 544 0
FLAG 48 192 OUTPUT
IOPIN 48 192 Out
FLAG 48 -96 INPUT
FLAG -432 -96 SOURCE
FLAG 448 128 0
SYMBOL voltage -432 48 R0
WINDOW 3 -464 48 Left 2
WINDOW 123 0 0 Left 0
WINDOW 39 0 0 Left 0
SYMATTR Value PULSE(0 3.3 10n 3n 3n 20n 50n 100)
SYMATTR InstName V1
SYMBOL voltage 624 -32 R0
SYMATTR InstName V2
SYMATTR Value 3.3
SYMBOL tline 96 288 R0
SYMATTR InstName T1
SYMATTR Value Td = 1n Z0 = 50
SYMBOL res 80 16 R0
SYMATTR InstName R3
SYMATTR Value 1000k
SYMBOL tline -272 -80 R0
SYMATTR InstName T2
SYMATTR Value Td=1n Z0=50
SYMBOL res -416 16 R180
WINDOW 0 36 76 Left 2
WINDOW 3 36 40 Left 2
SYMATTR InstName R4
SYMATTR Value 1
SYMBOL AutoGenerated\\HSTL_II_F_HR_IN50_TYP 208 -80 R0
SYMATTR InstName U2
SYMBOL voltage 448 32 R0
SYMATTR InstName V4
SYMATTR Value 3.3
SYMBOL res 224 352 R0
SYMATTR InstName R1
SYMATTR Value 50
SYMBOL res -128 96 R0
SYMATTR InstName R2
SYMATTR Value 50
TEXT 312 -208 Left 2 !.tran 0 60n 0 0.01n
