
.subckt SPARTAN7_BLVDS_25_HR_N_Typ INPUT OUTPUT ENABLE
XSignalModel INPUT OUTPUT ENABLE SPARTAN7_BLVDS_25_HR_Typ
+ PARAMS:
+ R_PIN=0.3345
+ L_PIN=4.35e-09
+ C_PIN=7.2e-13
.ends

.subckt SPARTAN7_BLVDS_25_HR_P_Typ INPUT OUTPUT ENABLE
XSignalModel INPUT OUTPUT ENABLE SPARTAN7_BLVDS_25_HR_Typ
+ PARAMS:
+ R_PIN=0.3345
+ L_PIN=4.35e-09
+ C_PIN=7.2e-13
.ends

.subckt SPARTAN7_DIFF_HSTL_II_18_F_HR_IN40_N_Typ INPUT OUTPUT ENABLE
XSignalModel INPUT OUTPUT ENABLE SPARTAN7_HSTL_II_18_F_HR_IN40_Typ
+ PARAMS:
+ R_PIN=0.3345
+ L_PIN=4.35e-09
+ C_PIN=7.2e-13
.ends

.subckt SPARTAN7_DIFF_HSTL_II_18_F_HR_IN40_P_Typ INPUT OUTPUT ENABLE
XSignalModel INPUT OUTPUT ENABLE SPARTAN7_HSTL_II_18_F_HR_IN40_Typ
+ PARAMS:
+ R_PIN=0.3345
+ L_PIN=4.35e-09
+ C_PIN=7.2e-13
.ends

.subckt SPARTAN7_DIFF_HSTL_II_18_F_HR_IN50_N_Typ INPUT OUTPUT ENABLE
XSignalModel INPUT OUTPUT ENABLE SPARTAN7_HSTL_II_18_F_HR_IN50_Typ
+ PARAMS:
+ R_PIN=0.3345
+ L_PIN=4.35e-09
+ C_PIN=7.2e-13
.ends

.subckt SPARTAN7_DIFF_HSTL_II_18_F_HR_IN50_P_Typ INPUT OUTPUT ENABLE
XSignalModel INPUT OUTPUT ENABLE SPARTAN7_HSTL_II_18_F_HR_IN50_Typ
+ PARAMS:
+ R_PIN=0.3345
+ L_PIN=4.35e-09
+ C_PIN=7.2e-13
.ends

.subckt SPARTAN7_DIFF_HSTL_II_18_F_HR_IN60_N_Typ INPUT OUTPUT ENABLE
XSignalModel INPUT OUTPUT ENABLE SPARTAN7_HSTL_II_18_F_HR_IN60_Typ
+ PARAMS:
+ R_PIN=0.3345
+ L_PIN=4.35e-09
+ C_PIN=7.2e-13
.ends

.subckt SPARTAN7_DIFF_HSTL_II_18_F_HR_IN60_P_Typ INPUT OUTPUT ENABLE
XSignalModel INPUT OUTPUT ENABLE SPARTAN7_HSTL_II_18_F_HR_IN60_Typ
+ PARAMS:
+ R_PIN=0.3345
+ L_PIN=4.35e-09
+ C_PIN=7.2e-13
.ends

.subckt SPARTAN7_DIFF_HSTL_II_18_F_HR_N_Typ INPUT OUTPUT ENABLE
XSignalModel INPUT OUTPUT ENABLE SPARTAN7_HSTL_II_18_F_HR_IN50_Typ
+ PARAMS:
+ R_PIN=0.3345
+ L_PIN=4.35e-09
+ C_PIN=7.2e-13
.ends

.subckt SPARTAN7_DIFF_HSTL_II_18_F_HR_P_Typ INPUT OUTPUT ENABLE
XSignalModel INPUT OUTPUT ENABLE SPARTAN7_HSTL_II_18_F_HR_IN50_Typ
+ PARAMS:
+ R_PIN=0.3345
+ L_PIN=4.35e-09
+ C_PIN=7.2e-13
.ends

.subckt SPARTAN7_DIFF_HSTL_II_18_S_HR_IN40_N_Typ INPUT OUTPUT ENABLE
XSignalModel INPUT OUTPUT ENABLE SPARTAN7_HSTL_II_18_S_HR_IN40_Typ
+ PARAMS:
+ R_PIN=0.3345
+ L_PIN=4.35e-09
+ C_PIN=7.2e-13
.ends

.subckt SPARTAN7_DIFF_HSTL_II_18_S_HR_IN40_P_Typ INPUT OUTPUT ENABLE
XSignalModel INPUT OUTPUT ENABLE SPARTAN7_HSTL_II_18_S_HR_IN40_Typ
+ PARAMS:
+ R_PIN=0.3345
+ L_PIN=4.35e-09
+ C_PIN=7.2e-13
.ends

.subckt SPARTAN7_DIFF_HSTL_II_18_S_HR_IN50_N_Typ INPUT OUTPUT ENABLE
XSignalModel INPUT OUTPUT ENABLE SPARTAN7_HSTL_II_18_S_HR_IN50_Typ
+ PARAMS:
+ R_PIN=0.3345
+ L_PIN=4.35e-09
+ C_PIN=7.2e-13
.ends

.subckt SPARTAN7_DIFF_HSTL_II_18_S_HR_IN50_P_Typ INPUT OUTPUT ENABLE
XSignalModel INPUT OUTPUT ENABLE SPARTAN7_HSTL_II_18_S_HR_IN50_Typ
+ PARAMS:
+ R_PIN=0.3345
+ L_PIN=4.35e-09
+ C_PIN=7.2e-13
.ends

.subckt SPARTAN7_DIFF_HSTL_II_18_S_HR_IN60_N_Typ INPUT OUTPUT ENABLE
XSignalModel INPUT OUTPUT ENABLE SPARTAN7_HSTL_II_18_S_HR_IN60_Typ
+ PARAMS:
+ R_PIN=0.3345
+ L_PIN=4.35e-09
+ C_PIN=7.2e-13
.ends

.subckt SPARTAN7_DIFF_HSTL_II_18_S_HR_IN60_P_Typ INPUT OUTPUT ENABLE
XSignalModel INPUT OUTPUT ENABLE SPARTAN7_HSTL_II_18_S_HR_IN60_Typ
+ PARAMS:
+ R_PIN=0.3345
+ L_PIN=4.35e-09
+ C_PIN=7.2e-13
.ends

.subckt SPARTAN7_DIFF_HSTL_II_18_S_HR_N_Typ INPUT OUTPUT ENABLE
XSignalModel INPUT OUTPUT ENABLE SPARTAN7_HSTL_II_18_S_HR_IN50_Typ
+ PARAMS:
+ R_PIN=0.3345
+ L_PIN=4.35e-09
+ C_PIN=7.2e-13
.ends

.subckt SPARTAN7_DIFF_HSTL_II_18_S_HR_P_Typ INPUT OUTPUT ENABLE
XSignalModel INPUT OUTPUT ENABLE SPARTAN7_HSTL_II_18_S_HR_IN50_Typ
+ PARAMS:
+ R_PIN=0.3345
+ L_PIN=4.35e-09
+ C_PIN=7.2e-13
.ends

.subckt SPARTAN7_DIFF_HSTL_II_F_HR_IN40_N_Typ INPUT OUTPUT ENABLE
XSignalModel INPUT OUTPUT ENABLE SPARTAN7_HSTL_II_F_HR_IN40_Typ
+ PARAMS:
+ R_PIN=0.3345
+ L_PIN=4.35e-09
+ C_PIN=7.2e-13
.ends

.subckt SPARTAN7_DIFF_HSTL_II_F_HR_IN40_P_Typ INPUT OUTPUT ENABLE
XSignalModel INPUT OUTPUT ENABLE SPARTAN7_HSTL_II_F_HR_IN40_Typ
+ PARAMS:
+ R_PIN=0.3345
+ L_PIN=4.35e-09
+ C_PIN=7.2e-13
.ends

.subckt SPARTAN7_DIFF_HSTL_II_F_HR_IN50_N_Typ INPUT OUTPUT ENABLE
XSignalModel INPUT OUTPUT ENABLE SPARTAN7_HSTL_II_F_HR_IN50_Typ
+ PARAMS:
+ R_PIN=0.3345
+ L_PIN=4.35e-09
+ C_PIN=7.2e-13
.ends

.subckt SPARTAN7_DIFF_HSTL_II_F_HR_IN50_P_Typ INPUT OUTPUT ENABLE
XSignalModel INPUT OUTPUT ENABLE SPARTAN7_HSTL_II_F_HR_IN50_Typ
+ PARAMS:
+ R_PIN=0.3345
+ L_PIN=4.35e-09
+ C_PIN=7.2e-13
.ends

.subckt SPARTAN7_DIFF_HSTL_II_F_HR_IN60_N_Typ INPUT OUTPUT ENABLE
XSignalModel INPUT OUTPUT ENABLE SPARTAN7_HSTL_II_F_HR_IN60_Typ
+ PARAMS:
+ R_PIN=0.3345
+ L_PIN=4.35e-09
+ C_PIN=7.2e-13
.ends

.subckt SPARTAN7_DIFF_HSTL_II_F_HR_IN60_P_Typ INPUT OUTPUT ENABLE
XSignalModel INPUT OUTPUT ENABLE SPARTAN7_HSTL_II_F_HR_IN60_Typ
+ PARAMS:
+ R_PIN=0.3345
+ L_PIN=4.35e-09
+ C_PIN=7.2e-13
.ends

.subckt SPARTAN7_DIFF_HSTL_II_F_HR_N_Typ INPUT OUTPUT ENABLE
XSignalModel INPUT OUTPUT ENABLE SPARTAN7_HSTL_II_F_HR_IN50_Typ
+ PARAMS:
+ R_PIN=0.3345
+ L_PIN=4.35e-09
+ C_PIN=7.2e-13
.ends

.subckt SPARTAN7_DIFF_HSTL_II_F_HR_P_Typ INPUT OUTPUT ENABLE
XSignalModel INPUT OUTPUT ENABLE SPARTAN7_HSTL_II_F_HR_IN50_Typ
+ PARAMS:
+ R_PIN=0.3345
+ L_PIN=4.35e-09
+ C_PIN=7.2e-13
.ends

.subckt SPARTAN7_DIFF_HSTL_II_S_HR_IN40_N_Typ INPUT OUTPUT ENABLE
XSignalModel INPUT OUTPUT ENABLE SPARTAN7_HSTL_II_S_HR_IN40_Typ
+ PARAMS:
+ R_PIN=0.3345
+ L_PIN=4.35e-09
+ C_PIN=7.2e-13
.ends

.subckt SPARTAN7_DIFF_HSTL_II_S_HR_IN40_P_Typ INPUT OUTPUT ENABLE
XSignalModel INPUT OUTPUT ENABLE SPARTAN7_HSTL_II_S_HR_IN40_Typ
+ PARAMS:
+ R_PIN=0.3345
+ L_PIN=4.35e-09
+ C_PIN=7.2e-13
.ends

.subckt SPARTAN7_DIFF_HSTL_II_S_HR_IN50_N_Typ INPUT OUTPUT ENABLE
XSignalModel INPUT OUTPUT ENABLE SPARTAN7_HSTL_II_S_HR_IN50_Typ
+ PARAMS:
+ R_PIN=0.3345
+ L_PIN=4.35e-09
+ C_PIN=7.2e-13
.ends

.subckt SPARTAN7_DIFF_HSTL_II_S_HR_IN50_P_Typ INPUT OUTPUT ENABLE
XSignalModel INPUT OUTPUT ENABLE SPARTAN7_HSTL_II_S_HR_IN50_Typ
+ PARAMS:
+ R_PIN=0.3345
+ L_PIN=4.35e-09
+ C_PIN=7.2e-13
.ends

.subckt SPARTAN7_DIFF_HSTL_II_S_HR_IN60_N_Typ INPUT OUTPUT ENABLE
XSignalModel INPUT OUTPUT ENABLE SPARTAN7_HSTL_II_S_HR_IN60_Typ
+ PARAMS:
+ R_PIN=0.3345
+ L_PIN=4.35e-09
+ C_PIN=7.2e-13
.ends

.subckt SPARTAN7_DIFF_HSTL_II_S_HR_IN60_P_Typ INPUT OUTPUT ENABLE
XSignalModel INPUT OUTPUT ENABLE SPARTAN7_HSTL_II_S_HR_IN60_Typ
+ PARAMS:
+ R_PIN=0.3345
+ L_PIN=4.35e-09
+ C_PIN=7.2e-13
.ends

.subckt SPARTAN7_DIFF_HSTL_II_S_HR_N_Typ INPUT OUTPUT ENABLE
XSignalModel INPUT OUTPUT ENABLE SPARTAN7_HSTL_II_S_HR_IN50_Typ
+ PARAMS:
+ R_PIN=0.3345
+ L_PIN=4.35e-09
+ C_PIN=7.2e-13
.ends

.subckt SPARTAN7_DIFF_HSTL_II_S_HR_P_Typ INPUT OUTPUT ENABLE
XSignalModel INPUT OUTPUT ENABLE SPARTAN7_HSTL_II_S_HR_IN50_Typ
+ PARAMS:
+ R_PIN=0.3345
+ L_PIN=4.35e-09
+ C_PIN=7.2e-13
.ends

.subckt SPARTAN7_DIFF_HSTL_I_18_F_HR_IN40_N_Typ INPUT OUTPUT ENABLE
XSignalModel INPUT OUTPUT ENABLE SPARTAN7_HSTL_I_18_F_HR_IN40_Typ
+ PARAMS:
+ R_PIN=0.3345
+ L_PIN=4.35e-09
+ C_PIN=7.2e-13
.ends

.subckt SPARTAN7_DIFF_HSTL_I_18_F_HR_IN40_P_Typ INPUT OUTPUT ENABLE
XSignalModel INPUT OUTPUT ENABLE SPARTAN7_HSTL_I_18_F_HR_IN40_Typ
+ PARAMS:
+ R_PIN=0.3345
+ L_PIN=4.35e-09
+ C_PIN=7.2e-13
.ends

.subckt SPARTAN7_DIFF_HSTL_I_18_F_HR_IN50_N_Typ INPUT OUTPUT ENABLE
XSignalModel INPUT OUTPUT ENABLE SPARTAN7_HSTL_I_18_F_HR_IN50_Typ
+ PARAMS:
+ R_PIN=0.3345
+ L_PIN=4.35e-09
+ C_PIN=7.2e-13
.ends

.subckt SPARTAN7_DIFF_HSTL_I_18_F_HR_IN50_P_Typ INPUT OUTPUT ENABLE
XSignalModel INPUT OUTPUT ENABLE SPARTAN7_HSTL_I_18_F_HR_IN50_Typ
+ PARAMS:
+ R_PIN=0.3345
+ L_PIN=4.35e-09
+ C_PIN=7.2e-13
.ends

.subckt SPARTAN7_DIFF_HSTL_I_18_F_HR_IN60_N_Typ INPUT OUTPUT ENABLE
XSignalModel INPUT OUTPUT ENABLE SPARTAN7_HSTL_I_18_F_HR_IN60_Typ
+ PARAMS:
+ R_PIN=0.3345
+ L_PIN=4.35e-09
+ C_PIN=7.2e-13
.ends

.subckt SPARTAN7_DIFF_HSTL_I_18_F_HR_IN60_P_Typ INPUT OUTPUT ENABLE
XSignalModel INPUT OUTPUT ENABLE SPARTAN7_HSTL_I_18_F_HR_IN60_Typ
+ PARAMS:
+ R_PIN=0.3345
+ L_PIN=4.35e-09
+ C_PIN=7.2e-13
.ends

.subckt SPARTAN7_DIFF_HSTL_I_18_F_HR_N_Typ INPUT OUTPUT ENABLE
XSignalModel INPUT OUTPUT ENABLE SPARTAN7_HSTL_I_18_F_HR_Typ
+ PARAMS:
+ R_PIN=0.3345
+ L_PIN=4.35e-09
+ C_PIN=7.2e-13
.ends

.subckt SPARTAN7_DIFF_HSTL_I_18_F_HR_P_Typ INPUT OUTPUT ENABLE
XSignalModel INPUT OUTPUT ENABLE SPARTAN7_HSTL_I_18_F_HR_Typ
+ PARAMS:
+ R_PIN=0.3345
+ L_PIN=4.35e-09
+ C_PIN=7.2e-13
.ends

.subckt SPARTAN7_DIFF_HSTL_I_18_S_HR_IN40_N_Typ INPUT OUTPUT ENABLE
XSignalModel INPUT OUTPUT ENABLE SPARTAN7_HSTL_I_18_S_HR_IN40_Typ
+ PARAMS:
+ R_PIN=0.3345
+ L_PIN=4.35e-09
+ C_PIN=7.2e-13
.ends

.subckt SPARTAN7_DIFF_HSTL_I_18_S_HR_IN40_P_Typ INPUT OUTPUT ENABLE
XSignalModel INPUT OUTPUT ENABLE SPARTAN7_HSTL_I_18_S_HR_IN40_Typ
+ PARAMS:
+ R_PIN=0.3345
+ L_PIN=4.35e-09
+ C_PIN=7.2e-13
.ends

.subckt SPARTAN7_DIFF_HSTL_I_18_S_HR_IN50_N_Typ INPUT OUTPUT ENABLE
XSignalModel INPUT OUTPUT ENABLE SPARTAN7_HSTL_I_18_S_HR_IN50_Typ
+ PARAMS:
+ R_PIN=0.3345
+ L_PIN=4.35e-09
+ C_PIN=7.2e-13
.ends

.subckt SPARTAN7_DIFF_HSTL_I_18_S_HR_IN50_P_Typ INPUT OUTPUT ENABLE
XSignalModel INPUT OUTPUT ENABLE SPARTAN7_HSTL_I_18_S_HR_IN50_Typ
+ PARAMS:
+ R_PIN=0.3345
+ L_PIN=4.35e-09
+ C_PIN=7.2e-13
.ends

.subckt SPARTAN7_DIFF_HSTL_I_18_S_HR_IN60_N_Typ INPUT OUTPUT ENABLE
XSignalModel INPUT OUTPUT ENABLE SPARTAN7_HSTL_I_18_S_HR_IN60_Typ
+ PARAMS:
+ R_PIN=0.3345
+ L_PIN=4.35e-09
+ C_PIN=7.2e-13
.ends

.subckt SPARTAN7_DIFF_HSTL_I_18_S_HR_IN60_P_Typ INPUT OUTPUT ENABLE
XSignalModel INPUT OUTPUT ENABLE SPARTAN7_HSTL_I_18_S_HR_IN60_Typ
+ PARAMS:
+ R_PIN=0.3345
+ L_PIN=4.35e-09
+ C_PIN=7.2e-13
.ends

.subckt SPARTAN7_DIFF_HSTL_I_18_S_HR_N_Typ INPUT OUTPUT ENABLE
XSignalModel INPUT OUTPUT ENABLE SPARTAN7_HSTL_I_18_S_HR_Typ
+ PARAMS:
+ R_PIN=0.3345
+ L_PIN=4.35e-09
+ C_PIN=7.2e-13
.ends

.subckt SPARTAN7_DIFF_HSTL_I_18_S_HR_P_Typ INPUT OUTPUT ENABLE
XSignalModel INPUT OUTPUT ENABLE SPARTAN7_HSTL_I_18_S_HR_Typ
+ PARAMS:
+ R_PIN=0.3345
+ L_PIN=4.35e-09
+ C_PIN=7.2e-13
.ends

.subckt SPARTAN7_DIFF_HSTL_I_F_HR_IN40_N_Typ INPUT OUTPUT ENABLE
XSignalModel INPUT OUTPUT ENABLE SPARTAN7_HSTL_I_F_HR_IN40_Typ
+ PARAMS:
+ R_PIN=0.3345
+ L_PIN=4.35e-09
+ C_PIN=7.2e-13
.ends

.subckt SPARTAN7_DIFF_HSTL_I_F_HR_IN40_P_Typ INPUT OUTPUT ENABLE
XSignalModel INPUT OUTPUT ENABLE SPARTAN7_HSTL_I_F_HR_IN40_Typ
+ PARAMS:
+ R_PIN=0.3345
+ L_PIN=4.35e-09
+ C_PIN=7.2e-13
.ends

.subckt SPARTAN7_DIFF_HSTL_I_F_HR_IN50_N_Typ INPUT OUTPUT ENABLE
XSignalModel INPUT OUTPUT ENABLE SPARTAN7_HSTL_I_F_HR_IN50_Typ
+ PARAMS:
+ R_PIN=0.3345
+ L_PIN=4.35e-09
+ C_PIN=7.2e-13
.ends

.subckt SPARTAN7_DIFF_HSTL_I_F_HR_IN50_P_Typ INPUT OUTPUT ENABLE
XSignalModel INPUT OUTPUT ENABLE SPARTAN7_HSTL_I_F_HR_IN50_Typ
+ PARAMS:
+ R_PIN=0.3345
+ L_PIN=4.35e-09
+ C_PIN=7.2e-13
.ends

.subckt SPARTAN7_DIFF_HSTL_I_F_HR_IN60_N_Typ INPUT OUTPUT ENABLE
XSignalModel INPUT OUTPUT ENABLE SPARTAN7_HSTL_I_F_HR_IN60_Typ
+ PARAMS:
+ R_PIN=0.3345
+ L_PIN=4.35e-09
+ C_PIN=7.2e-13
.ends

.subckt SPARTAN7_DIFF_HSTL_I_F_HR_IN60_P_Typ INPUT OUTPUT ENABLE
XSignalModel INPUT OUTPUT ENABLE SPARTAN7_HSTL_I_F_HR_IN60_Typ
+ PARAMS:
+ R_PIN=0.3345
+ L_PIN=4.35e-09
+ C_PIN=7.2e-13
.ends

.subckt SPARTAN7_DIFF_HSTL_I_F_HR_N_Typ INPUT OUTPUT ENABLE
XSignalModel INPUT OUTPUT ENABLE SPARTAN7_HSTL_I_F_HR_Typ
+ PARAMS:
+ R_PIN=0.3345
+ L_PIN=4.35e-09
+ C_PIN=7.2e-13
.ends

.subckt SPARTAN7_DIFF_HSTL_I_F_HR_P_Typ INPUT OUTPUT ENABLE
XSignalModel INPUT OUTPUT ENABLE SPARTAN7_HSTL_I_F_HR_Typ
+ PARAMS:
+ R_PIN=0.3345
+ L_PIN=4.35e-09
+ C_PIN=7.2e-13
.ends

.subckt SPARTAN7_DIFF_HSTL_I_S_HR_IN40_N_Typ INPUT OUTPUT ENABLE
XSignalModel INPUT OUTPUT ENABLE SPARTAN7_HSTL_I_S_HR_IN40_Typ
+ PARAMS:
+ R_PIN=0.3345
+ L_PIN=4.35e-09
+ C_PIN=7.2e-13
.ends

.subckt SPARTAN7_DIFF_HSTL_I_S_HR_IN40_P_Typ INPUT OUTPUT ENABLE
XSignalModel INPUT OUTPUT ENABLE SPARTAN7_HSTL_I_S_HR_IN40_Typ
+ PARAMS:
+ R_PIN=0.3345
+ L_PIN=4.35e-09
+ C_PIN=7.2e-13
.ends

.subckt SPARTAN7_DIFF_HSTL_I_S_HR_IN50_N_Typ INPUT OUTPUT ENABLE
XSignalModel INPUT OUTPUT ENABLE SPARTAN7_HSTL_I_S_HR_IN50_Typ
+ PARAMS:
+ R_PIN=0.3345
+ L_PIN=4.35e-09
+ C_PIN=7.2e-13
.ends

.subckt SPARTAN7_DIFF_HSTL_I_S_HR_IN50_P_Typ INPUT OUTPUT ENABLE
XSignalModel INPUT OUTPUT ENABLE SPARTAN7_HSTL_I_S_HR_IN50_Typ
+ PARAMS:
+ R_PIN=0.3345
+ L_PIN=4.35e-09
+ C_PIN=7.2e-13
.ends

.subckt SPARTAN7_DIFF_HSTL_I_S_HR_IN60_N_Typ INPUT OUTPUT ENABLE
XSignalModel INPUT OUTPUT ENABLE SPARTAN7_HSTL_I_S_HR_IN60_Typ
+ PARAMS:
+ R_PIN=0.3345
+ L_PIN=4.35e-09
+ C_PIN=7.2e-13
.ends

.subckt SPARTAN7_DIFF_HSTL_I_S_HR_IN60_P_Typ INPUT OUTPUT ENABLE
XSignalModel INPUT OUTPUT ENABLE SPARTAN7_HSTL_I_S_HR_IN60_Typ
+ PARAMS:
+ R_PIN=0.3345
+ L_PIN=4.35e-09
+ C_PIN=7.2e-13
.ends

.subckt SPARTAN7_DIFF_HSTL_I_S_HR_N_Typ INPUT OUTPUT ENABLE
XSignalModel INPUT OUTPUT ENABLE SPARTAN7_HSTL_I_S_HR_Typ
+ PARAMS:
+ R_PIN=0.3345
+ L_PIN=4.35e-09
+ C_PIN=7.2e-13
.ends

.subckt SPARTAN7_DIFF_HSTL_I_S_HR_P_Typ INPUT OUTPUT ENABLE
XSignalModel INPUT OUTPUT ENABLE SPARTAN7_HSTL_I_S_HR_Typ
+ PARAMS:
+ R_PIN=0.3345
+ L_PIN=4.35e-09
+ C_PIN=7.2e-13
.ends

.subckt SPARTAN7_DIFF_HSUL_12_F_HR_N_Typ INPUT OUTPUT ENABLE
XSignalModel INPUT OUTPUT ENABLE SPARTAN7_HSUL_12_F_HR_Typ
+ PARAMS:
+ R_PIN=0.3345
+ L_PIN=4.35e-09
+ C_PIN=7.2e-13
.ends

.subckt SPARTAN7_DIFF_HSUL_12_F_HR_P_Typ INPUT OUTPUT ENABLE
XSignalModel INPUT OUTPUT ENABLE SPARTAN7_HSUL_12_F_HR_Typ
+ PARAMS:
+ R_PIN=0.3345
+ L_PIN=4.35e-09
+ C_PIN=7.2e-13
.ends

.subckt SPARTAN7_DIFF_HSUL_12_S_HR_N_Typ INPUT OUTPUT ENABLE
XSignalModel INPUT OUTPUT ENABLE SPARTAN7_HSUL_12_S_HR_Typ
+ PARAMS:
+ R_PIN=0.3345
+ L_PIN=4.35e-09
+ C_PIN=7.2e-13
.ends

.subckt SPARTAN7_DIFF_HSUL_12_S_HR_P_Typ INPUT OUTPUT ENABLE
XSignalModel INPUT OUTPUT ENABLE SPARTAN7_HSUL_12_S_HR_Typ
+ PARAMS:
+ R_PIN=0.3345
+ L_PIN=4.35e-09
+ C_PIN=7.2e-13
.ends

.subckt SPARTAN7_DIFF_MOBILE_DDR_F_HR_N_Typ INPUT OUTPUT ENABLE
XSignalModel INPUT OUTPUT ENABLE SPARTAN7_MOBILE_DDR_F_HR_Typ
+ PARAMS:
+ R_PIN=0.3345
+ L_PIN=4.35e-09
+ C_PIN=7.2e-13
.ends

.subckt SPARTAN7_DIFF_MOBILE_DDR_F_HR_P_Typ INPUT OUTPUT ENABLE
XSignalModel INPUT OUTPUT ENABLE SPARTAN7_MOBILE_DDR_F_HR_Typ
+ PARAMS:
+ R_PIN=0.3345
+ L_PIN=4.35e-09
+ C_PIN=7.2e-13
.ends

.subckt SPARTAN7_DIFF_MOBILE_DDR_S_HR_N_Typ INPUT OUTPUT ENABLE
XSignalModel INPUT OUTPUT ENABLE SPARTAN7_MOBILE_DDR_S_HR_Typ
+ PARAMS:
+ R_PIN=0.3345
+ L_PIN=4.35e-09
+ C_PIN=7.2e-13
.ends

.subckt SPARTAN7_DIFF_MOBILE_DDR_S_HR_P_Typ INPUT OUTPUT ENABLE
XSignalModel INPUT OUTPUT ENABLE SPARTAN7_MOBILE_DDR_S_HR_Typ
+ PARAMS:
+ R_PIN=0.3345
+ L_PIN=4.35e-09
+ C_PIN=7.2e-13
.ends

.subckt SPARTAN7_DIFF_SSTL135_F_HR_IN40_N_Typ INPUT OUTPUT ENABLE
XSignalModel INPUT OUTPUT ENABLE SPARTAN7_SSTL135_F_HR_IN40_Typ
+ PARAMS:
+ R_PIN=0.3345
+ L_PIN=4.35e-09
+ C_PIN=7.2e-13
.ends

.subckt SPARTAN7_DIFF_SSTL135_F_HR_IN40_P_Typ INPUT OUTPUT ENABLE
XSignalModel INPUT OUTPUT ENABLE SPARTAN7_SSTL135_F_HR_IN40_Typ
+ PARAMS:
+ R_PIN=0.3345
+ L_PIN=4.35e-09
+ C_PIN=7.2e-13
.ends

.subckt SPARTAN7_DIFF_SSTL135_F_HR_IN50_N_Typ INPUT OUTPUT ENABLE
XSignalModel INPUT OUTPUT ENABLE SPARTAN7_SSTL135_F_HR_IN50_Typ
+ PARAMS:
+ R_PIN=0.3345
+ L_PIN=4.35e-09
+ C_PIN=7.2e-13
.ends

.subckt SPARTAN7_DIFF_SSTL135_F_HR_IN50_P_Typ INPUT OUTPUT ENABLE
XSignalModel INPUT OUTPUT ENABLE SPARTAN7_SSTL135_F_HR_IN50_Typ
+ PARAMS:
+ R_PIN=0.3345
+ L_PIN=4.35e-09
+ C_PIN=7.2e-13
.ends

.subckt SPARTAN7_DIFF_SSTL135_F_HR_IN60_N_Typ INPUT OUTPUT ENABLE
XSignalModel INPUT OUTPUT ENABLE SPARTAN7_SSTL135_F_HR_IN60_Typ
+ PARAMS:
+ R_PIN=0.3345
+ L_PIN=4.35e-09
+ C_PIN=7.2e-13
.ends

.subckt SPARTAN7_DIFF_SSTL135_F_HR_IN60_P_Typ INPUT OUTPUT ENABLE
XSignalModel INPUT OUTPUT ENABLE SPARTAN7_SSTL135_F_HR_IN60_Typ
+ PARAMS:
+ R_PIN=0.3345
+ L_PIN=4.35e-09
+ C_PIN=7.2e-13
.ends

.subckt SPARTAN7_DIFF_SSTL135_F_HR_N_Typ INPUT OUTPUT ENABLE
XSignalModel INPUT OUTPUT ENABLE SPARTAN7_SSTL135_F_HR_Typ
+ PARAMS:
+ R_PIN=0.3345
+ L_PIN=4.35e-09
+ C_PIN=7.2e-13
.ends

.subckt SPARTAN7_DIFF_SSTL135_F_HR_P_Typ INPUT OUTPUT ENABLE
XSignalModel INPUT OUTPUT ENABLE SPARTAN7_SSTL135_F_HR_Typ
+ PARAMS:
+ R_PIN=0.3345
+ L_PIN=4.35e-09
+ C_PIN=7.2e-13
.ends

.subckt SPARTAN7_DIFF_SSTL135_R_F_HR_IN40_N_Typ INPUT OUTPUT ENABLE
XSignalModel INPUT OUTPUT ENABLE SPARTAN7_SSTL135_R_F_HR_IN40_Typ
+ PARAMS:
+ R_PIN=0.3345
+ L_PIN=4.35e-09
+ C_PIN=7.2e-13
.ends

.subckt SPARTAN7_DIFF_SSTL135_R_F_HR_IN40_P_Typ INPUT OUTPUT ENABLE
XSignalModel INPUT OUTPUT ENABLE SPARTAN7_SSTL135_R_F_HR_IN40_Typ
+ PARAMS:
+ R_PIN=0.3345
+ L_PIN=4.35e-09
+ C_PIN=7.2e-13
.ends

.subckt SPARTAN7_DIFF_SSTL135_R_F_HR_IN50_N_Typ INPUT OUTPUT ENABLE
XSignalModel INPUT OUTPUT ENABLE SPARTAN7_SSTL135_R_F_HR_IN50_Typ
+ PARAMS:
+ R_PIN=0.3345
+ L_PIN=4.35e-09
+ C_PIN=7.2e-13
.ends

.subckt SPARTAN7_DIFF_SSTL135_R_F_HR_IN50_P_Typ INPUT OUTPUT ENABLE
XSignalModel INPUT OUTPUT ENABLE SPARTAN7_SSTL135_R_F_HR_IN50_Typ
+ PARAMS:
+ R_PIN=0.3345
+ L_PIN=4.35e-09
+ C_PIN=7.2e-13
.ends

.subckt SPARTAN7_DIFF_SSTL135_R_F_HR_IN60_N_Typ INPUT OUTPUT ENABLE
XSignalModel INPUT OUTPUT ENABLE SPARTAN7_SSTL135_R_F_HR_IN60_Typ
+ PARAMS:
+ R_PIN=0.3345
+ L_PIN=4.35e-09
+ C_PIN=7.2e-13
.ends

.subckt SPARTAN7_DIFF_SSTL135_R_F_HR_IN60_P_Typ INPUT OUTPUT ENABLE
XSignalModel INPUT OUTPUT ENABLE SPARTAN7_SSTL135_R_F_HR_IN60_Typ
+ PARAMS:
+ R_PIN=0.3345
+ L_PIN=4.35e-09
+ C_PIN=7.2e-13
.ends

.subckt SPARTAN7_DIFF_SSTL135_R_F_HR_N_Typ INPUT OUTPUT ENABLE
XSignalModel INPUT OUTPUT ENABLE SPARTAN7_SSTL135_R_F_HR_Typ
+ PARAMS:
+ R_PIN=0.3345
+ L_PIN=4.35e-09
+ C_PIN=7.2e-13
.ends

.subckt SPARTAN7_DIFF_SSTL135_R_F_HR_P_Typ INPUT OUTPUT ENABLE
XSignalModel INPUT OUTPUT ENABLE SPARTAN7_SSTL135_R_F_HR_Typ
+ PARAMS:
+ R_PIN=0.3345
+ L_PIN=4.35e-09
+ C_PIN=7.2e-13
.ends

.subckt SPARTAN7_DIFF_SSTL135_R_S_HR_IN40_N_Typ INPUT OUTPUT ENABLE
XSignalModel INPUT OUTPUT ENABLE SPARTAN7_SSTL135_R_S_HR_IN40_Typ
+ PARAMS:
+ R_PIN=0.3345
+ L_PIN=4.35e-09
+ C_PIN=7.2e-13
.ends

.subckt SPARTAN7_DIFF_SSTL135_R_S_HR_IN40_P_Typ INPUT OUTPUT ENABLE
XSignalModel INPUT OUTPUT ENABLE SPARTAN7_SSTL135_R_S_HR_IN40_Typ
+ PARAMS:
+ R_PIN=0.3345
+ L_PIN=4.35e-09
+ C_PIN=7.2e-13
.ends

.subckt SPARTAN7_DIFF_SSTL135_R_S_HR_IN50_N_Typ INPUT OUTPUT ENABLE
XSignalModel INPUT OUTPUT ENABLE SPARTAN7_SSTL135_R_S_HR_IN50_Typ
+ PARAMS:
+ R_PIN=0.3345
+ L_PIN=4.35e-09
+ C_PIN=7.2e-13
.ends

.subckt SPARTAN7_DIFF_SSTL135_R_S_HR_IN50_P_Typ INPUT OUTPUT ENABLE
XSignalModel INPUT OUTPUT ENABLE SPARTAN7_SSTL135_R_S_HR_IN50_Typ
+ PARAMS:
+ R_PIN=0.3345
+ L_PIN=4.35e-09
+ C_PIN=7.2e-13
.ends

.subckt SPARTAN7_DIFF_SSTL135_R_S_HR_IN60_N_Typ INPUT OUTPUT ENABLE
XSignalModel INPUT OUTPUT ENABLE SPARTAN7_SSTL135_R_S_HR_IN60_Typ
+ PARAMS:
+ R_PIN=0.3345
+ L_PIN=4.35e-09
+ C_PIN=7.2e-13
.ends

.subckt SPARTAN7_DIFF_SSTL135_R_S_HR_IN60_P_Typ INPUT OUTPUT ENABLE
XSignalModel INPUT OUTPUT ENABLE SPARTAN7_SSTL135_R_S_HR_IN60_Typ
+ PARAMS:
+ R_PIN=0.3345
+ L_PIN=4.35e-09
+ C_PIN=7.2e-13
.ends

.subckt SPARTAN7_DIFF_SSTL135_R_S_HR_N_Typ INPUT OUTPUT ENABLE
XSignalModel INPUT OUTPUT ENABLE SPARTAN7_SSTL135_R_S_HR_Typ
+ PARAMS:
+ R_PIN=0.3345
+ L_PIN=4.35e-09
+ C_PIN=7.2e-13
.ends

.subckt SPARTAN7_DIFF_SSTL135_R_S_HR_P_Typ INPUT OUTPUT ENABLE
XSignalModel INPUT OUTPUT ENABLE SPARTAN7_SSTL135_R_S_HR_Typ
+ PARAMS:
+ R_PIN=0.3345
+ L_PIN=4.35e-09
+ C_PIN=7.2e-13
.ends

.subckt SPARTAN7_DIFF_SSTL135_S_HR_IN40_N_Typ INPUT OUTPUT ENABLE
XSignalModel INPUT OUTPUT ENABLE SPARTAN7_SSTL135_S_HR_IN40_Typ
+ PARAMS:
+ R_PIN=0.3345
+ L_PIN=4.35e-09
+ C_PIN=7.2e-13
.ends

.subckt SPARTAN7_DIFF_SSTL135_S_HR_IN40_P_Typ INPUT OUTPUT ENABLE
XSignalModel INPUT OUTPUT ENABLE SPARTAN7_SSTL135_S_HR_IN40_Typ
+ PARAMS:
+ R_PIN=0.3345
+ L_PIN=4.35e-09
+ C_PIN=7.2e-13
.ends

.subckt SPARTAN7_DIFF_SSTL135_S_HR_IN50_N_Typ INPUT OUTPUT ENABLE
XSignalModel INPUT OUTPUT ENABLE SPARTAN7_SSTL135_S_HR_IN50_Typ
+ PARAMS:
+ R_PIN=0.3345
+ L_PIN=4.35e-09
+ C_PIN=7.2e-13
.ends

.subckt SPARTAN7_DIFF_SSTL135_S_HR_IN50_P_Typ INPUT OUTPUT ENABLE
XSignalModel INPUT OUTPUT ENABLE SPARTAN7_SSTL135_S_HR_IN50_Typ
+ PARAMS:
+ R_PIN=0.3345
+ L_PIN=4.35e-09
+ C_PIN=7.2e-13
.ends

.subckt SPARTAN7_DIFF_SSTL135_S_HR_IN60_N_Typ INPUT OUTPUT ENABLE
XSignalModel INPUT OUTPUT ENABLE SPARTAN7_SSTL135_S_HR_IN60_Typ
+ PARAMS:
+ R_PIN=0.3345
+ L_PIN=4.35e-09
+ C_PIN=7.2e-13
.ends

.subckt SPARTAN7_DIFF_SSTL135_S_HR_IN60_P_Typ INPUT OUTPUT ENABLE
XSignalModel INPUT OUTPUT ENABLE SPARTAN7_SSTL135_S_HR_IN60_Typ
+ PARAMS:
+ R_PIN=0.3345
+ L_PIN=4.35e-09
+ C_PIN=7.2e-13
.ends

.subckt SPARTAN7_DIFF_SSTL135_S_HR_N_Typ INPUT OUTPUT ENABLE
XSignalModel INPUT OUTPUT ENABLE SPARTAN7_SSTL135_S_HR_Typ
+ PARAMS:
+ R_PIN=0.3345
+ L_PIN=4.35e-09
+ C_PIN=7.2e-13
.ends

.subckt SPARTAN7_DIFF_SSTL135_S_HR_P_Typ INPUT OUTPUT ENABLE
XSignalModel INPUT OUTPUT ENABLE SPARTAN7_SSTL135_S_HR_Typ
+ PARAMS:
+ R_PIN=0.3345
+ L_PIN=4.35e-09
+ C_PIN=7.2e-13
.ends

.subckt SPARTAN7_DIFF_SSTL15_F_HR_IN40_N_Typ INPUT OUTPUT ENABLE
XSignalModel INPUT OUTPUT ENABLE SPARTAN7_SSTL15_F_HR_IN40_Typ
+ PARAMS:
+ R_PIN=0.3345
+ L_PIN=4.35e-09
+ C_PIN=7.2e-13
.ends

.subckt SPARTAN7_DIFF_SSTL15_F_HR_IN40_P_Typ INPUT OUTPUT ENABLE
XSignalModel INPUT OUTPUT ENABLE SPARTAN7_SSTL15_F_HR_IN40_Typ
+ PARAMS:
+ R_PIN=0.3345
+ L_PIN=4.35e-09
+ C_PIN=7.2e-13
.ends

.subckt SPARTAN7_DIFF_SSTL15_F_HR_IN50_N_Typ INPUT OUTPUT ENABLE
XSignalModel INPUT OUTPUT ENABLE SPARTAN7_SSTL15_F_HR_IN50_Typ
+ PARAMS:
+ R_PIN=0.3345
+ L_PIN=4.35e-09
+ C_PIN=7.2e-13
.ends

.subckt SPARTAN7_DIFF_SSTL15_F_HR_IN50_P_Typ INPUT OUTPUT ENABLE
XSignalModel INPUT OUTPUT ENABLE SPARTAN7_SSTL15_F_HR_IN50_Typ
+ PARAMS:
+ R_PIN=0.3345
+ L_PIN=4.35e-09
+ C_PIN=7.2e-13
.ends

.subckt SPARTAN7_DIFF_SSTL15_F_HR_IN60_N_Typ INPUT OUTPUT ENABLE
XSignalModel INPUT OUTPUT ENABLE SPARTAN7_SSTL15_F_HR_IN60_Typ
+ PARAMS:
+ R_PIN=0.3345
+ L_PIN=4.35e-09
+ C_PIN=7.2e-13
.ends

.subckt SPARTAN7_DIFF_SSTL15_F_HR_IN60_P_Typ INPUT OUTPUT ENABLE
XSignalModel INPUT OUTPUT ENABLE SPARTAN7_SSTL15_F_HR_IN60_Typ
+ PARAMS:
+ R_PIN=0.3345
+ L_PIN=4.35e-09
+ C_PIN=7.2e-13
.ends

.subckt SPARTAN7_DIFF_SSTL15_F_HR_N_Typ INPUT OUTPUT ENABLE
XSignalModel INPUT OUTPUT ENABLE SPARTAN7_SSTL15_F_HR_Typ
+ PARAMS:
+ R_PIN=0.3345
+ L_PIN=4.35e-09
+ C_PIN=7.2e-13
.ends

.subckt SPARTAN7_DIFF_SSTL15_F_HR_P_Typ INPUT OUTPUT ENABLE
XSignalModel INPUT OUTPUT ENABLE SPARTAN7_SSTL15_F_HR_Typ
+ PARAMS:
+ R_PIN=0.3345
+ L_PIN=4.35e-09
+ C_PIN=7.2e-13
.ends

.subckt SPARTAN7_DIFF_SSTL15_R_F_HR_IN40_N_Typ INPUT OUTPUT ENABLE
XSignalModel INPUT OUTPUT ENABLE SPARTAN7_SSTL15_R_F_HR_IN40_Typ
+ PARAMS:
+ R_PIN=0.3345
+ L_PIN=4.35e-09
+ C_PIN=7.2e-13
.ends

.subckt SPARTAN7_DIFF_SSTL15_R_F_HR_IN40_P_Typ INPUT OUTPUT ENABLE
XSignalModel INPUT OUTPUT ENABLE SPARTAN7_SSTL15_R_F_HR_IN40_Typ
+ PARAMS:
+ R_PIN=0.3345
+ L_PIN=4.35e-09
+ C_PIN=7.2e-13
.ends

.subckt SPARTAN7_DIFF_SSTL15_R_F_HR_IN50_N_Typ INPUT OUTPUT ENABLE
XSignalModel INPUT OUTPUT ENABLE SPARTAN7_SSTL15_R_F_HR_IN50_Typ
+ PARAMS:
+ R_PIN=0.3345
+ L_PIN=4.35e-09
+ C_PIN=7.2e-13
.ends

.subckt SPARTAN7_DIFF_SSTL15_R_F_HR_IN50_P_Typ INPUT OUTPUT ENABLE
XSignalModel INPUT OUTPUT ENABLE SPARTAN7_SSTL15_R_F_HR_IN50_Typ
+ PARAMS:
+ R_PIN=0.3345
+ L_PIN=4.35e-09
+ C_PIN=7.2e-13
.ends

.subckt SPARTAN7_DIFF_SSTL15_R_F_HR_IN60_N_Typ INPUT OUTPUT ENABLE
XSignalModel INPUT OUTPUT ENABLE SPARTAN7_SSTL15_R_F_HR_IN60_Typ
+ PARAMS:
+ R_PIN=0.3345
+ L_PIN=4.35e-09
+ C_PIN=7.2e-13
.ends

.subckt SPARTAN7_DIFF_SSTL15_R_F_HR_IN60_P_Typ INPUT OUTPUT ENABLE
XSignalModel INPUT OUTPUT ENABLE SPARTAN7_SSTL15_R_F_HR_IN60_Typ
+ PARAMS:
+ R_PIN=0.3345
+ L_PIN=4.35e-09
+ C_PIN=7.2e-13
.ends

.subckt SPARTAN7_DIFF_SSTL15_R_F_HR_N_Typ INPUT OUTPUT ENABLE
XSignalModel INPUT OUTPUT ENABLE SPARTAN7_SSTL15_R_F_HR_Typ
+ PARAMS:
+ R_PIN=0.3345
+ L_PIN=4.35e-09
+ C_PIN=7.2e-13
.ends

.subckt SPARTAN7_DIFF_SSTL15_R_F_HR_P_Typ INPUT OUTPUT ENABLE
XSignalModel INPUT OUTPUT ENABLE SPARTAN7_SSTL15_R_F_HR_Typ
+ PARAMS:
+ R_PIN=0.3345
+ L_PIN=4.35e-09
+ C_PIN=7.2e-13
.ends

.subckt SPARTAN7_DIFF_SSTL15_R_S_HR_IN40_N_Typ INPUT OUTPUT ENABLE
XSignalModel INPUT OUTPUT ENABLE SPARTAN7_SSTL15_R_S_HR_IN40_Typ
+ PARAMS:
+ R_PIN=0.3345
+ L_PIN=4.35e-09
+ C_PIN=7.2e-13
.ends

.subckt SPARTAN7_DIFF_SSTL15_R_S_HR_IN40_P_Typ INPUT OUTPUT ENABLE
XSignalModel INPUT OUTPUT ENABLE SPARTAN7_SSTL15_R_S_HR_IN40_Typ
+ PARAMS:
+ R_PIN=0.3345
+ L_PIN=4.35e-09
+ C_PIN=7.2e-13
.ends

.subckt SPARTAN7_DIFF_SSTL15_R_S_HR_IN50_N_Typ INPUT OUTPUT ENABLE
XSignalModel INPUT OUTPUT ENABLE SPARTAN7_SSTL15_R_S_HR_IN50_Typ
+ PARAMS:
+ R_PIN=0.3345
+ L_PIN=4.35e-09
+ C_PIN=7.2e-13
.ends

.subckt SPARTAN7_DIFF_SSTL15_R_S_HR_IN50_P_Typ INPUT OUTPUT ENABLE
XSignalModel INPUT OUTPUT ENABLE SPARTAN7_SSTL15_R_S_HR_IN50_Typ
+ PARAMS:
+ R_PIN=0.3345
+ L_PIN=4.35e-09
+ C_PIN=7.2e-13
.ends

.subckt SPARTAN7_DIFF_SSTL15_R_S_HR_IN60_N_Typ INPUT OUTPUT ENABLE
XSignalModel INPUT OUTPUT ENABLE SPARTAN7_SSTL15_R_S_HR_IN60_Typ
+ PARAMS:
+ R_PIN=0.3345
+ L_PIN=4.35e-09
+ C_PIN=7.2e-13
.ends

.subckt SPARTAN7_DIFF_SSTL15_R_S_HR_IN60_P_Typ INPUT OUTPUT ENABLE
XSignalModel INPUT OUTPUT ENABLE SPARTAN7_SSTL15_R_S_HR_IN60_Typ
+ PARAMS:
+ R_PIN=0.3345
+ L_PIN=4.35e-09
+ C_PIN=7.2e-13
.ends

.subckt SPARTAN7_DIFF_SSTL15_R_S_HR_N_Typ INPUT OUTPUT ENABLE
XSignalModel INPUT OUTPUT ENABLE SPARTAN7_SSTL15_R_S_HR_Typ
+ PARAMS:
+ R_PIN=0.3345
+ L_PIN=4.35e-09
+ C_PIN=7.2e-13
.ends

.subckt SPARTAN7_DIFF_SSTL15_R_S_HR_P_Typ INPUT OUTPUT ENABLE
XSignalModel INPUT OUTPUT ENABLE SPARTAN7_SSTL15_R_S_HR_Typ
+ PARAMS:
+ R_PIN=0.3345
+ L_PIN=4.35e-09
+ C_PIN=7.2e-13
.ends

.subckt SPARTAN7_DIFF_SSTL15_S_HR_IN40_N_Typ INPUT OUTPUT ENABLE
XSignalModel INPUT OUTPUT ENABLE SPARTAN7_SSTL15_S_HR_IN40_Typ
+ PARAMS:
+ R_PIN=0.3345
+ L_PIN=4.35e-09
+ C_PIN=7.2e-13
.ends

.subckt SPARTAN7_DIFF_SSTL15_S_HR_IN40_P_Typ INPUT OUTPUT ENABLE
XSignalModel INPUT OUTPUT ENABLE SPARTAN7_SSTL15_S_HR_IN40_Typ
+ PARAMS:
+ R_PIN=0.3345
+ L_PIN=4.35e-09
+ C_PIN=7.2e-13
.ends

.subckt SPARTAN7_DIFF_SSTL15_S_HR_IN50_N_Typ INPUT OUTPUT ENABLE
XSignalModel INPUT OUTPUT ENABLE SPARTAN7_SSTL15_S_HR_IN50_Typ
+ PARAMS:
+ R_PIN=0.3345
+ L_PIN=4.35e-09
+ C_PIN=7.2e-13
.ends

.subckt SPARTAN7_DIFF_SSTL15_S_HR_IN50_P_Typ INPUT OUTPUT ENABLE
XSignalModel INPUT OUTPUT ENABLE SPARTAN7_SSTL15_S_HR_IN50_Typ
+ PARAMS:
+ R_PIN=0.3345
+ L_PIN=4.35e-09
+ C_PIN=7.2e-13
.ends

.subckt SPARTAN7_DIFF_SSTL15_S_HR_IN60_N_Typ INPUT OUTPUT ENABLE
XSignalModel INPUT OUTPUT ENABLE SPARTAN7_SSTL15_S_HR_IN60_Typ
+ PARAMS:
+ R_PIN=0.3345
+ L_PIN=4.35e-09
+ C_PIN=7.2e-13
.ends

.subckt SPARTAN7_DIFF_SSTL15_S_HR_IN60_P_Typ INPUT OUTPUT ENABLE
XSignalModel INPUT OUTPUT ENABLE SPARTAN7_SSTL15_S_HR_IN60_Typ
+ PARAMS:
+ R_PIN=0.3345
+ L_PIN=4.35e-09
+ C_PIN=7.2e-13
.ends

.subckt SPARTAN7_DIFF_SSTL15_S_HR_N_Typ INPUT OUTPUT ENABLE
XSignalModel INPUT OUTPUT ENABLE SPARTAN7_SSTL15_S_HR_Typ
+ PARAMS:
+ R_PIN=0.3345
+ L_PIN=4.35e-09
+ C_PIN=7.2e-13
.ends

.subckt SPARTAN7_DIFF_SSTL15_S_HR_P_Typ INPUT OUTPUT ENABLE
XSignalModel INPUT OUTPUT ENABLE SPARTAN7_SSTL15_S_HR_Typ
+ PARAMS:
+ R_PIN=0.3345
+ L_PIN=4.35e-09
+ C_PIN=7.2e-13
.ends

.subckt SPARTAN7_DIFF_SSTL18_II_F_HR_IN40_N_Typ INPUT OUTPUT ENABLE
XSignalModel INPUT OUTPUT ENABLE SPARTAN7_SSTL18_II_F_HR_IN40_Typ
+ PARAMS:
+ R_PIN=0.3345
+ L_PIN=4.35e-09
+ C_PIN=7.2e-13
.ends

.subckt SPARTAN7_DIFF_SSTL18_II_F_HR_IN40_P_Typ INPUT OUTPUT ENABLE
XSignalModel INPUT OUTPUT ENABLE SPARTAN7_SSTL18_II_F_HR_IN40_Typ
+ PARAMS:
+ R_PIN=0.3345
+ L_PIN=4.35e-09
+ C_PIN=7.2e-13
.ends

.subckt SPARTAN7_DIFF_SSTL18_II_F_HR_IN50_N_Typ INPUT OUTPUT ENABLE
XSignalModel INPUT OUTPUT ENABLE SPARTAN7_SSTL18_II_F_HR_IN50_Typ
+ PARAMS:
+ R_PIN=0.3345
+ L_PIN=4.35e-09
+ C_PIN=7.2e-13
.ends

.subckt SPARTAN7_DIFF_SSTL18_II_F_HR_IN50_P_Typ INPUT OUTPUT ENABLE
XSignalModel INPUT OUTPUT ENABLE SPARTAN7_SSTL18_II_F_HR_IN50_Typ
+ PARAMS:
+ R_PIN=0.3345
+ L_PIN=4.35e-09
+ C_PIN=7.2e-13
.ends

.subckt SPARTAN7_DIFF_SSTL18_II_F_HR_IN60_N_Typ INPUT OUTPUT ENABLE
XSignalModel INPUT OUTPUT ENABLE SPARTAN7_SSTL18_II_F_HR_IN60_Typ
+ PARAMS:
+ R_PIN=0.3345
+ L_PIN=4.35e-09
+ C_PIN=7.2e-13
.ends

.subckt SPARTAN7_DIFF_SSTL18_II_F_HR_IN60_P_Typ INPUT OUTPUT ENABLE
XSignalModel INPUT OUTPUT ENABLE SPARTAN7_SSTL18_II_F_HR_IN60_Typ
+ PARAMS:
+ R_PIN=0.3345
+ L_PIN=4.35e-09
+ C_PIN=7.2e-13
.ends

.subckt SPARTAN7_DIFF_SSTL18_II_F_HR_N_Typ INPUT OUTPUT ENABLE
XSignalModel INPUT OUTPUT ENABLE SPARTAN7_SSTL18_II_F_HR_Typ
+ PARAMS:
+ R_PIN=0.3345
+ L_PIN=4.35e-09
+ C_PIN=7.2e-13
.ends

.subckt SPARTAN7_DIFF_SSTL18_II_F_HR_P_Typ INPUT OUTPUT ENABLE
XSignalModel INPUT OUTPUT ENABLE SPARTAN7_SSTL18_II_F_HR_Typ
+ PARAMS:
+ R_PIN=0.3345
+ L_PIN=4.35e-09
+ C_PIN=7.2e-13
.ends

.subckt SPARTAN7_DIFF_SSTL18_II_S_HR_IN40_N_Typ INPUT OUTPUT ENABLE
XSignalModel INPUT OUTPUT ENABLE SPARTAN7_SSTL18_II_S_HR_IN40_Typ
+ PARAMS:
+ R_PIN=0.3345
+ L_PIN=4.35e-09
+ C_PIN=7.2e-13
.ends

.subckt SPARTAN7_DIFF_SSTL18_II_S_HR_IN40_P_Typ INPUT OUTPUT ENABLE
XSignalModel INPUT OUTPUT ENABLE SPARTAN7_SSTL18_II_S_HR_IN40_Typ
+ PARAMS:
+ R_PIN=0.3345
+ L_PIN=4.35e-09
+ C_PIN=7.2e-13
.ends

.subckt SPARTAN7_DIFF_SSTL18_II_S_HR_IN50_N_Typ INPUT OUTPUT ENABLE
XSignalModel INPUT OUTPUT ENABLE SPARTAN7_SSTL18_II_S_HR_IN50_Typ
+ PARAMS:
+ R_PIN=0.3345
+ L_PIN=4.35e-09
+ C_PIN=7.2e-13
.ends

.subckt SPARTAN7_DIFF_SSTL18_II_S_HR_IN50_P_Typ INPUT OUTPUT ENABLE
XSignalModel INPUT OUTPUT ENABLE SPARTAN7_SSTL18_II_S_HR_IN50_Typ
+ PARAMS:
+ R_PIN=0.3345
+ L_PIN=4.35e-09
+ C_PIN=7.2e-13
.ends

.subckt SPARTAN7_DIFF_SSTL18_II_S_HR_IN60_N_Typ INPUT OUTPUT ENABLE
XSignalModel INPUT OUTPUT ENABLE SPARTAN7_SSTL18_II_S_HR_IN60_Typ
+ PARAMS:
+ R_PIN=0.3345
+ L_PIN=4.35e-09
+ C_PIN=7.2e-13
.ends

.subckt SPARTAN7_DIFF_SSTL18_II_S_HR_IN60_P_Typ INPUT OUTPUT ENABLE
XSignalModel INPUT OUTPUT ENABLE SPARTAN7_SSTL18_II_S_HR_IN60_Typ
+ PARAMS:
+ R_PIN=0.3345
+ L_PIN=4.35e-09
+ C_PIN=7.2e-13
.ends

.subckt SPARTAN7_DIFF_SSTL18_II_S_HR_N_Typ INPUT OUTPUT ENABLE
XSignalModel INPUT OUTPUT ENABLE SPARTAN7_SSTL18_II_S_HR_Typ
+ PARAMS:
+ R_PIN=0.3345
+ L_PIN=4.35e-09
+ C_PIN=7.2e-13
.ends

.subckt SPARTAN7_DIFF_SSTL18_II_S_HR_P_Typ INPUT OUTPUT ENABLE
XSignalModel INPUT OUTPUT ENABLE SPARTAN7_SSTL18_II_S_HR_Typ
+ PARAMS:
+ R_PIN=0.3345
+ L_PIN=4.35e-09
+ C_PIN=7.2e-13
.ends

.subckt SPARTAN7_DIFF_SSTL18_I_F_HR_IN40_N_Typ INPUT OUTPUT ENABLE