
.subckt DESIGN_icn_ckt 1 2 
* Display all elements first 
TidlPart_53 3 0 4 0 z0=50 Td=2e-009 R=1e-5 
TidlPart_432 4 0 1 0 z0=50 Td=1e-010 R=1e-5 
RidlPart_149 3 2 0.000000e+000
.ends DESIGN_icn_ckt
