
*** Printing Custom Stimuli ***

.subckt DESIGN.IO2.1_stim 5 4 3
v_5 5 3 1 (DC ..)

v_4 4 3  PWL (0 1 1.99981e-008 1.0 2.06679e-008 0 3.99982e-008 0 4.06423e-008 1.0 6.00014e-008 1.0 6.06712e-008 0 1e-007 0 1.00644e-007 1.0 1.2e-007 1.0 1.2067e-007 0 1.40001e-007 0 1.40645e-007 1.0 1.79999e-007 1.0 1.80669e-007 0 2e-007 0 2.00644e-007 1.0 2.19998e-007 1.0 2.20668e-007 0 2.39998e-007 0 2.40642e-007 1.0 2.79997e-007 1.0 2.80667e-007 0 2.99998e-007 0 3.00643e-007 1.0 3.60002e-007 1.0 3.60672e-007 0 3.80001e-007 0 3.80645e-007 1.0 3.99998e-007 1.0 4.00668e-007 0 4.19998e-007 0 4.20642e-007 1.0 4.39999e-007 1.0 4.40669e-007 0 4.60003e-007 0 4.60647e-007 1.0 4.8e-007 1.0 4.8067e-007 0 4.99999e-007 0 5.00644e-007 1.0 5.19997e-007 1.0 5.20667e-007 0 5.40002e-007 0 5.40646e-007 1.0 5.6e-007 1.0 5.6067e-007 0 5.79998e-007 0 5.80643e-007 1.0 6.00001e-007 1.0 6.0067e-007 0 6.19998e-007 0 6.20642e-007 1.0 6.4e-007 1.0 6.40669e-007 0 7.00002e-007 0 7.00646e-007 1.0 7.4e-007 1.0 7.4067e-007 0 7.6e-007 0 7.60644e-007 1.0 7.79999e-007 1.0 7.80669e-007 0 8.39998e-007 0 8.40643e-007 1.0 8.60001e-007 1.0 8.60671e-007 0 8.79998e-007 0 8.80642e-007 1.0 9e-007 1.0 9.0067e-007 0 9.2e-007 0 9.20644e-007 1.0 9.59998e-007 1.0 9.60668e-007 0 9.80002e-007 0 9.80646e-007 1.0 9.99999e-007 1.0 1.00067e-006 0 1.02e-006 0 1.02064e-006 1.0 1.04e-006 1.0 1.04067e-006 0 1.06e-006 0 1.06064e-006 1.0 1.08e-006 1.0 1.08067e-006 0 1.1e-006 0 1.10065e-006 1.0 1.12e-006 1.0 1.12067e-006 0 1.14e-006 0 1.14064e-006 1.0 1.16e-006 1.0 1.16067e-006 0 1.18e-006 0 1.18065e-006 1.0 1.22e-006 1.0 1.22067e-006 0 1.24e-006 0 1.24065e-006 1.0 1.26e-006 1.0 1.26067e-006 0 1.28e-006 0 1.28064e-006 1.0 1.3e-006 1.0 1.30067e-006 0 1.32e-006 0 1.32064e-006 1.0 1.34e-006 1.0 ..)

.ends DESIGN.IO2.1_stim

*** Printing Custom Stimuli ***

.subckt DESIGN.IO1.1_stim 5 4 3
v_5 5 3 0
v_4 4 3 1
.ends DESIGN.IO1.1_stim
